* NGSPICE file created from solo_squash_caravel_gf180.ext - technology: gf180mcuD

* Black-box entry subcircuit for gf180mcu_fd_sc_mcu7t5v0__fillcap_4 abstract view
.subckt gf180mcu_fd_sc_mcu7t5v0__fillcap_4 VDD VNW VPW VSS
.ends

* Black-box entry subcircuit for gf180mcu_fd_sc_mcu7t5v0__fill_2 abstract view
.subckt gf180mcu_fd_sc_mcu7t5v0__fill_2 VDD VNW VPW VSS
.ends

* Black-box entry subcircuit for gf180mcu_fd_sc_mcu7t5v0__antenna abstract view
.subckt gf180mcu_fd_sc_mcu7t5v0__antenna I VDD VNW VPW VSS
.ends

* Black-box entry subcircuit for gf180mcu_fd_sc_mcu7t5v0__fillcap_8 abstract view
.subckt gf180mcu_fd_sc_mcu7t5v0__fillcap_8 VDD VNW VPW VSS
.ends

* Black-box entry subcircuit for gf180mcu_fd_sc_mcu7t5v0__filltie abstract view
.subckt gf180mcu_fd_sc_mcu7t5v0__filltie VDD VSS
.ends

* Black-box entry subcircuit for gf180mcu_fd_sc_mcu7t5v0__fillcap_64 abstract view
.subckt gf180mcu_fd_sc_mcu7t5v0__fillcap_64 VDD VNW VPW VSS
.ends

* Black-box entry subcircuit for gf180mcu_fd_sc_mcu7t5v0__fillcap_16 abstract view
.subckt gf180mcu_fd_sc_mcu7t5v0__fillcap_16 VDD VNW VPW VSS
.ends

* Black-box entry subcircuit for gf180mcu_fd_sc_mcu7t5v0__nand2_1 abstract view
.subckt gf180mcu_fd_sc_mcu7t5v0__nand2_1 A1 A2 ZN VDD VNW VPW VSS
.ends

* Black-box entry subcircuit for gf180mcu_fd_sc_mcu7t5v0__xor2_1 abstract view
.subckt gf180mcu_fd_sc_mcu7t5v0__xor2_1 A1 A2 Z VDD VNW VPW VSS
.ends

* Black-box entry subcircuit for gf180mcu_fd_sc_mcu7t5v0__fillcap_32 abstract view
.subckt gf180mcu_fd_sc_mcu7t5v0__fillcap_32 VDD VNW VPW VSS
.ends

* Black-box entry subcircuit for gf180mcu_fd_sc_mcu7t5v0__fill_1 abstract view
.subckt gf180mcu_fd_sc_mcu7t5v0__fill_1 VDD VNW VPW VSS
.ends

* Black-box entry subcircuit for gf180mcu_fd_sc_mcu7t5v0__nor2_1 abstract view
.subckt gf180mcu_fd_sc_mcu7t5v0__nor2_1 A1 A2 ZN VDD VNW VPW VSS
.ends

* Black-box entry subcircuit for gf180mcu_fd_sc_mcu7t5v0__aoi21_1 abstract view
.subckt gf180mcu_fd_sc_mcu7t5v0__aoi21_1 A1 A2 B ZN VDD VNW VPW VSS
.ends

* Black-box entry subcircuit for gf180mcu_fd_sc_mcu7t5v0__buf_1 abstract view
.subckt gf180mcu_fd_sc_mcu7t5v0__buf_1 I Z VDD VNW VPW VSS
.ends

* Black-box entry subcircuit for gf180mcu_fd_sc_mcu7t5v0__dffq_1 abstract view
.subckt gf180mcu_fd_sc_mcu7t5v0__dffq_1 D CLK Q VDD VNW VPW VSS
.ends

* Black-box entry subcircuit for gf180mcu_fd_sc_mcu7t5v0__endcap abstract view
.subckt gf180mcu_fd_sc_mcu7t5v0__endcap VDD VSS
.ends

* Black-box entry subcircuit for gf180mcu_fd_sc_mcu7t5v0__oai21_1 abstract view
.subckt gf180mcu_fd_sc_mcu7t5v0__oai21_1 A1 A2 B ZN VDD VNW VPW VSS
.ends

* Black-box entry subcircuit for gf180mcu_fd_sc_mcu7t5v0__clkbuf_1 abstract view
.subckt gf180mcu_fd_sc_mcu7t5v0__clkbuf_1 I Z VDD VNW VPW VSS
.ends

* Black-box entry subcircuit for gf180mcu_fd_sc_mcu7t5v0__clkbuf_16 abstract view
.subckt gf180mcu_fd_sc_mcu7t5v0__clkbuf_16 I Z VDD VNW VPW VSS
.ends

* Black-box entry subcircuit for gf180mcu_fd_sc_mcu7t5v0__clkinv_1 abstract view
.subckt gf180mcu_fd_sc_mcu7t5v0__clkinv_1 I ZN VDD VNW VPW VSS
.ends

* Black-box entry subcircuit for gf180mcu_fd_sc_mcu7t5v0__clkbuf_4 abstract view
.subckt gf180mcu_fd_sc_mcu7t5v0__clkbuf_4 I Z VDD VNW VPW VSS
.ends

* Black-box entry subcircuit for gf180mcu_fd_sc_mcu7t5v0__oai31_1 abstract view
.subckt gf180mcu_fd_sc_mcu7t5v0__oai31_1 A1 A2 A3 B ZN VDD VNW VPW VSS
.ends

* Black-box entry subcircuit for gf180mcu_fd_sc_mcu7t5v0__xnor2_1 abstract view
.subckt gf180mcu_fd_sc_mcu7t5v0__xnor2_1 A1 A2 ZN VDD VNW VPW VSS
.ends

* Black-box entry subcircuit for gf180mcu_fd_sc_mcu7t5v0__aoi22_1 abstract view
.subckt gf180mcu_fd_sc_mcu7t5v0__aoi22_1 A1 A2 B1 B2 ZN VDD VNW VPW VSS
.ends

* Black-box entry subcircuit for gf180mcu_fd_sc_mcu7t5v0__oai211_1 abstract view
.subckt gf180mcu_fd_sc_mcu7t5v0__oai211_1 A1 A2 B C ZN VDD VNW VPW VSS
.ends

* Black-box entry subcircuit for gf180mcu_fd_sc_mcu7t5v0__nor3_1 abstract view
.subckt gf180mcu_fd_sc_mcu7t5v0__nor3_1 A1 A2 A3 ZN VDD VNW VPW VSS
.ends

* Black-box entry subcircuit for gf180mcu_fd_sc_mcu7t5v0__and3_1 abstract view
.subckt gf180mcu_fd_sc_mcu7t5v0__and3_1 A1 A2 A3 Z VDD VNW VPW VSS
.ends

* Black-box entry subcircuit for gf180mcu_fd_sc_mcu7t5v0__clkbuf_2 abstract view
.subckt gf180mcu_fd_sc_mcu7t5v0__clkbuf_2 I Z VDD VNW VPW VSS
.ends

* Black-box entry subcircuit for gf180mcu_fd_sc_mcu7t5v0__aoi221_1 abstract view
.subckt gf180mcu_fd_sc_mcu7t5v0__aoi221_1 A1 A2 B1 B2 C ZN VDD VNW VPW VSS
.ends

* Black-box entry subcircuit for gf180mcu_fd_sc_mcu7t5v0__xor3_1 abstract view
.subckt gf180mcu_fd_sc_mcu7t5v0__xor3_1 A1 A2 A3 Z VDD VNW VPW VSS
.ends

* Black-box entry subcircuit for gf180mcu_fd_sc_mcu7t5v0__clkbuf_3 abstract view
.subckt gf180mcu_fd_sc_mcu7t5v0__clkbuf_3 I Z VDD VNW VPW VSS
.ends

* Black-box entry subcircuit for gf180mcu_fd_sc_mcu7t5v0__buf_3 abstract view
.subckt gf180mcu_fd_sc_mcu7t5v0__buf_3 I Z VDD VNW VPW VSS
.ends

* Black-box entry subcircuit for gf180mcu_fd_sc_mcu7t5v0__aoi211_1 abstract view
.subckt gf180mcu_fd_sc_mcu7t5v0__aoi211_1 A1 A2 B C ZN VDD VNW VPW VSS
.ends

* Black-box entry subcircuit for gf180mcu_fd_sc_mcu7t5v0__or2_1 abstract view
.subckt gf180mcu_fd_sc_mcu7t5v0__or2_1 A1 A2 Z VDD VNW VPW VSS
.ends

* Black-box entry subcircuit for gf180mcu_fd_sc_mcu7t5v0__and2_1 abstract view
.subckt gf180mcu_fd_sc_mcu7t5v0__and2_1 A1 A2 Z VDD VNW VPW VSS
.ends

* Black-box entry subcircuit for gf180mcu_fd_sc_mcu7t5v0__nand3_1 abstract view
.subckt gf180mcu_fd_sc_mcu7t5v0__nand3_1 A1 A2 A3 ZN VDD VNW VPW VSS
.ends

* Black-box entry subcircuit for gf180mcu_fd_sc_mcu7t5v0__nor4_2 abstract view
.subckt gf180mcu_fd_sc_mcu7t5v0__nor4_2 A1 A2 A3 A4 ZN VDD VNW VPW VSS
.ends

* Black-box entry subcircuit for gf180mcu_fd_sc_mcu7t5v0__aoi21_2 abstract view
.subckt gf180mcu_fd_sc_mcu7t5v0__aoi21_2 A1 A2 B ZN VDD VNW VPW VSS
.ends

* Black-box entry subcircuit for gf180mcu_fd_sc_mcu7t5v0__nor4_4 abstract view
.subckt gf180mcu_fd_sc_mcu7t5v0__nor4_4 A1 A2 A3 A4 ZN VDD VNW VPW VSS
.ends

* Black-box entry subcircuit for gf180mcu_fd_sc_mcu7t5v0__or3_1 abstract view
.subckt gf180mcu_fd_sc_mcu7t5v0__or3_1 A1 A2 A3 Z VDD VNW VPW VSS
.ends

* Black-box entry subcircuit for gf180mcu_fd_sc_mcu7t5v0__inv_1 abstract view
.subckt gf180mcu_fd_sc_mcu7t5v0__inv_1 I ZN VDD VNW VPW VSS
.ends

* Black-box entry subcircuit for gf180mcu_fd_sc_mcu7t5v0__and4_1 abstract view
.subckt gf180mcu_fd_sc_mcu7t5v0__and4_1 A1 A2 A3 A4 Z VDD VNW VPW VSS
.ends

* Black-box entry subcircuit for gf180mcu_fd_sc_mcu7t5v0__tiel abstract view
.subckt gf180mcu_fd_sc_mcu7t5v0__tiel ZN VDD VNW VPW VSS
.ends

* Black-box entry subcircuit for gf180mcu_fd_sc_mcu7t5v0__aoi221_2 abstract view
.subckt gf180mcu_fd_sc_mcu7t5v0__aoi221_2 A1 A2 B1 B2 C ZN VDD VNW VPW VSS
.ends

* Black-box entry subcircuit for gf180mcu_fd_sc_mcu7t5v0__mux2_2 abstract view
.subckt gf180mcu_fd_sc_mcu7t5v0__mux2_2 I0 I1 S Z VDD VNW VPW VSS
.ends

* Black-box entry subcircuit for gf180mcu_fd_sc_mcu7t5v0__oai31_2 abstract view
.subckt gf180mcu_fd_sc_mcu7t5v0__oai31_2 A1 A2 A3 B ZN VDD VNW VPW VSS
.ends

* Black-box entry subcircuit for gf180mcu_fd_sc_mcu7t5v0__oai22_1 abstract view
.subckt gf180mcu_fd_sc_mcu7t5v0__oai22_1 A1 A2 B1 B2 ZN VDD VNW VPW VSS
.ends

* Black-box entry subcircuit for gf180mcu_fd_sc_mcu7t5v0__clkinv_2 abstract view
.subckt gf180mcu_fd_sc_mcu7t5v0__clkinv_2 I ZN VDD VNW VPW VSS
.ends

* Black-box entry subcircuit for gf180mcu_fd_sc_mcu7t5v0__or4_1 abstract view
.subckt gf180mcu_fd_sc_mcu7t5v0__or4_1 A1 A2 A3 A4 Z VDD VNW VPW VSS
.ends

* Black-box entry subcircuit for gf180mcu_fd_sc_mcu7t5v0__nand4_1 abstract view
.subckt gf180mcu_fd_sc_mcu7t5v0__nand4_1 A1 A2 A3 A4 ZN VDD VNW VPW VSS
.ends

* Black-box entry subcircuit for gf180mcu_fd_sc_mcu7t5v0__nor2_2 abstract view
.subckt gf180mcu_fd_sc_mcu7t5v0__nor2_2 A1 A2 ZN VDD VNW VPW VSS
.ends

* Black-box entry subcircuit for gf180mcu_fd_sc_mcu7t5v0__nand3_2 abstract view
.subckt gf180mcu_fd_sc_mcu7t5v0__nand3_2 A1 A2 A3 ZN VDD VNW VPW VSS
.ends

* Black-box entry subcircuit for gf180mcu_fd_sc_mcu7t5v0__dffq_2 abstract view
.subckt gf180mcu_fd_sc_mcu7t5v0__dffq_2 D CLK Q VDD VNW VPW VSS
.ends

* Black-box entry subcircuit for gf180mcu_fd_sc_mcu7t5v0__or4_2 abstract view
.subckt gf180mcu_fd_sc_mcu7t5v0__or4_2 A1 A2 A3 A4 Z VDD VNW VPW VSS
.ends

* Black-box entry subcircuit for gf180mcu_fd_sc_mcu7t5v0__xor2_2 abstract view
.subckt gf180mcu_fd_sc_mcu7t5v0__xor2_2 A1 A2 Z VDD VNW VPW VSS
.ends

* Black-box entry subcircuit for gf180mcu_fd_sc_mcu7t5v0__nand2_2 abstract view
.subckt gf180mcu_fd_sc_mcu7t5v0__nand2_2 A1 A2 ZN VDD VNW VPW VSS
.ends

* Black-box entry subcircuit for gf180mcu_fd_sc_mcu7t5v0__oai21_2 abstract view
.subckt gf180mcu_fd_sc_mcu7t5v0__oai21_2 A1 A2 B ZN VDD VNW VPW VSS
.ends

.subckt solo_squash_caravel_gf180 blue debug_design_reset debug_gpio_ready down_key_n
+ ext_reset_n gpio_ready green hsync io_oeb[0] io_oeb[10] io_oeb[11] io_oeb[13] io_oeb[14]
+ io_oeb[15] io_oeb[16] io_oeb[17] io_oeb[18] io_oeb[19] io_oeb[1] io_oeb[2] io_oeb[31]
+ io_oeb[32] io_oeb[33] io_oeb[34] io_oeb[35] io_oeb[36] io_oeb[37] io_oeb[3] io_oeb[4]
+ io_oeb[5] io_oeb[6] io_oeb[7] io_oeb[8] io_oeb[9] new_game_n pause_n red speaker
+ up_key_n vdd vss vsync wb_clk_i wb_rst_i io_oeb[27] io_oeb[26] io_oeb[25] io_oeb[24]
+ io_oeb[23] io_oeb[22] io_oeb[21] io_oeb[20] io_oeb[30] io_oeb[12] io_oeb[29] io_oeb[28]
XFILLER_0_27_60 vdd vdd vss vss gf180mcu_fd_sc_mcu7t5v0__fillcap_4
XFILLER_0_17_244 vdd vdd vss vss gf180mcu_fd_sc_mcu7t5v0__fill_2
XANTENNA_clkbuf_3_3__f_wb_clk_i_I clknet_0_wb_clk_i vdd vdd vss vss gf180mcu_fd_sc_mcu7t5v0__antenna
XFILLER_0_32_247 vdd vdd vss vss gf180mcu_fd_sc_mcu7t5v0__fillcap_8
XFILLER_0_4_171 vdd vdd vss vss gf180mcu_fd_sc_mcu7t5v0__fillcap_4
XTAP_TAPCELL_ROW_9_148 vdd vss gf180mcu_fd_sc_mcu7t5v0__filltie
XFILLER_0_17_277 vdd vdd vss vss gf180mcu_fd_sc_mcu7t5v0__fill_2
XFILLER_0_17_288 vdd vdd vss vss gf180mcu_fd_sc_mcu7t5v0__fill_2
XFILLER_0_48_37 vdd vdd vss vss gf180mcu_fd_sc_mcu7t5v0__fillcap_64
XFILLER_0_46_317 vdd vdd vss vss gf180mcu_fd_sc_mcu7t5v0__fillcap_16
XFILLER_0_13_51 vdd vdd vss vss gf180mcu_fd_sc_mcu7t5v0__fillcap_4
XTAP_TAPCELL_ROW_14_172 vdd vss gf180mcu_fd_sc_mcu7t5v0__filltie
X_0985_ _0175_ _0443_ _0450_ vdd vdd vss vss gf180mcu_fd_sc_mcu7t5v0__nand2_1
XTAP_TAPCELL_ROW_37_275 vdd vss gf180mcu_fd_sc_mcu7t5v0__filltie
XTAP_TAPCELL_ROW_20_197 vdd vss gf180mcu_fd_sc_mcu7t5v0__filltie
XTAP_TAPCELL_ROW_28_231 vdd vss gf180mcu_fd_sc_mcu7t5v0__filltie
XFILLER_0_28_317 vdd vdd vss vss gf180mcu_fd_sc_mcu7t5v0__fillcap_16
X_0770_ _0255_ _0257_ _0258_ vdd vdd vss vss gf180mcu_fd_sc_mcu7t5v0__xor2_1
XFILLER_0_24_50 vdd vdd vss vss gf180mcu_fd_sc_mcu7t5v0__fillcap_32
XFILLER_0_6_244 vdd vdd vss vss gf180mcu_fd_sc_mcu7t5v0__fill_1
XFILLER_0_6_222 vdd vdd vss vss gf180mcu_fd_sc_mcu7t5v0__fillcap_8
XFILLER_0_19_317 vdd vdd vss vss gf180mcu_fd_sc_mcu7t5v0__fill_2
X_0968_ _0064_ _0300_ _0434_ vdd vdd vss vss gf180mcu_fd_sc_mcu7t5v0__nand2_1
X_0899_ _0353_ _0371_ _0024_ vdd vdd vss vss gf180mcu_fd_sc_mcu7t5v0__nor2_1
XFILLER_0_10_272 vdd vdd vss vss gf180mcu_fd_sc_mcu7t5v0__fill_1
XFILLER_0_43_139 vdd vdd vss vss gf180mcu_fd_sc_mcu7t5v0__fill_1
XTAP_TAPCELL_ROW_31_248 vdd vss gf180mcu_fd_sc_mcu7t5v0__filltie
X_0822_ _0303_ _0305_ _0306_ vdd vdd vss vss gf180mcu_fd_sc_mcu7t5v0__nand2_1
XFILLER_0_28_136 vdd vdd vss vss gf180mcu_fd_sc_mcu7t5v0__fillcap_16
XFILLER_0_28_169 vdd vdd vss vss gf180mcu_fd_sc_mcu7t5v0__fillcap_4
X_0684_ _0168_ _0178_ _0181_ _0182_ vdd vdd vss vss gf180mcu_fd_sc_mcu7t5v0__aoi21_1
XFILLER_0_3_247 vdd vdd vss vss gf180mcu_fd_sc_mcu7t5v0__fillcap_32
XFILLER_0_24_342 vdd vdd vss vss gf180mcu_fd_sc_mcu7t5v0__fillcap_4
X_0753_ _0241_ _0220_ _0242_ vdd vdd vss vss gf180mcu_fd_sc_mcu7t5v0__nor2_1
XFILLER_0_19_72 vdd vdd vss vss gf180mcu_fd_sc_mcu7t5v0__fillcap_16
X_1098_ _0543_ _0544_ vdd vdd vss vss gf180mcu_fd_sc_mcu7t5v0__buf_1
XTAP_TAPCELL_ROW_22_204 vdd vss gf180mcu_fd_sc_mcu7t5v0__filltie
X_1167_ _0054_ clknet_3_4__leaf_wb_clk_i solo_squash.v\[7\] vdd vdd vss vss gf180mcu_fd_sc_mcu7t5v0__dffq_1
XFILLER_0_34_139 vdd vdd vss vss gf180mcu_fd_sc_mcu7t5v0__fillcap_4
XFILLER_0_19_158 vdd vdd vss vss gf180mcu_fd_sc_mcu7t5v0__fillcap_4
XFILLER_0_19_169 vdd vdd vss vss gf180mcu_fd_sc_mcu7t5v0__fillcap_4
XFILLER_0_27_180 vdd vdd vss vss gf180mcu_fd_sc_mcu7t5v0__fill_2
XPHY_EDGE_ROW_8_Left_58 vdd vss gf180mcu_fd_sc_mcu7t5v0__endcap
XANTENNA__1097__A2 _0191_ vdd vdd vss vss gf180mcu_fd_sc_mcu7t5v0__antenna
XFILLER_0_31_18 vdd vdd vss vss gf180mcu_fd_sc_mcu7t5v0__fillcap_8
XFILLER_0_25_139 vdd vdd vss vss gf180mcu_fd_sc_mcu7t5v0__fill_1
XFILLER_0_0_206 vdd vdd vss vss gf180mcu_fd_sc_mcu7t5v0__fillcap_32
X_1021_ _0090_ _0324_ _0483_ vdd vdd vss vss gf180mcu_fd_sc_mcu7t5v0__xor2_1
XFILLER_0_8_317 vdd vdd vss vss gf180mcu_fd_sc_mcu7t5v0__fillcap_16
XFILLER_0_16_139 vdd vdd vss vss gf180mcu_fd_sc_mcu7t5v0__fill_1
X_0805_ _0234_ _0287_ _0289_ _0290_ vdd vdd vss vss gf180mcu_fd_sc_mcu7t5v0__oai21_1
X_0667_ solo_squash.ballY\[6\] _0165_ vdd vdd vss vss gf180mcu_fd_sc_mcu7t5v0__clkbuf_1
X_0598_ _0100_ _0101_ vdd vdd vss vss gf180mcu_fd_sc_mcu7t5v0__clkbuf_1
X_0736_ _0224_ _0221_ _0226_ _0227_ vdd vdd vss vss gf180mcu_fd_sc_mcu7t5v0__oai21_1
XFILLER_0_24_183 vdd vdd vss vss gf180mcu_fd_sc_mcu7t5v0__fillcap_8
XFILLER_0_39_209 vdd vdd vss vss gf180mcu_fd_sc_mcu7t5v0__fill_1
XFILLER_0_1_72 vdd vdd vss vss gf180mcu_fd_sc_mcu7t5v0__fillcap_64
Xclkbuf_3_7__f_wb_clk_i clknet_0_wb_clk_i clknet_3_7__leaf_wb_clk_i vdd vdd vss vss
+ gf180mcu_fd_sc_mcu7t5v0__clkbuf_16
XFILLER_0_21_120 vdd vdd vss vss gf180mcu_fd_sc_mcu7t5v0__fillcap_16
XFILLER_0_21_142 vdd vdd vss vss gf180mcu_fd_sc_mcu7t5v0__fillcap_4
XANTENNA__0753__A1 _0241_ vdd vdd vss vss gf180mcu_fd_sc_mcu7t5v0__antenna
XFILLER_0_16_62 vdd vdd vss vss gf180mcu_fd_sc_mcu7t5v0__fill_2
X_1004_ solo_squash.inBallY _0468_ vdd vdd vss vss gf180mcu_fd_sc_mcu7t5v0__clkinv_1
XFILLER_0_44_234 vdd vdd vss vss gf180mcu_fd_sc_mcu7t5v0__fill_2
X_0719_ _0210_ _0212_ _0003_ vdd vdd vss vss gf180mcu_fd_sc_mcu7t5v0__nor2_1
XFILLER_0_35_212 vdd vdd vss vss gf180mcu_fd_sc_mcu7t5v0__fill_2
Xoutput20 net20 speaker vdd vdd vss vss gf180mcu_fd_sc_mcu7t5v0__clkbuf_4
XFILLER_0_5_139 vdd vdd vss vss gf180mcu_fd_sc_mcu7t5v0__fill_1
XFILLER_0_27_72 vdd vdd vss vss gf180mcu_fd_sc_mcu7t5v0__fill_2
XFILLER_0_17_212 vdd vdd vss vss gf180mcu_fd_sc_mcu7t5v0__fillcap_32
XFILLER_0_32_259 vdd vdd vss vss gf180mcu_fd_sc_mcu7t5v0__fill_1
XTAP_TAPCELL_ROW_9_149 vdd vss gf180mcu_fd_sc_mcu7t5v0__filltie
XANTENNA__0965__A1 _0421_ vdd vdd vss vss gf180mcu_fd_sc_mcu7t5v0__antenna
XPHY_EDGE_ROW_37_Left_87 vdd vss gf180mcu_fd_sc_mcu7t5v0__endcap
XFILLER_0_23_248 vdd vdd vss vss gf180mcu_fd_sc_mcu7t5v0__fill_2
XFILLER_0_23_259 vdd vdd vss vss gf180mcu_fd_sc_mcu7t5v0__fillcap_8
XFILLER_0_31_270 vdd vdd vss vss gf180mcu_fd_sc_mcu7t5v0__fill_1
X_0984_ _0117_ _0174_ _0440_ _0448_ _0449_ vdd vdd vss vss gf180mcu_fd_sc_mcu7t5v0__oai31_1
XFILLER_0_1_142 vdd vdd vss vss gf180mcu_fd_sc_mcu7t5v0__fillcap_16
XFILLER_0_14_259 vdd vdd vss vss gf180mcu_fd_sc_mcu7t5v0__fillcap_4
XFILLER_0_1_197 vdd vdd vss vss gf180mcu_fd_sc_mcu7t5v0__fillcap_4
XTAP_TAPCELL_ROW_20_198 vdd vss gf180mcu_fd_sc_mcu7t5v0__filltie
XTAP_TAPCELL_ROW_5_130 vdd vss gf180mcu_fd_sc_mcu7t5v0__filltie
XTAP_TAPCELL_ROW_28_232 vdd vss gf180mcu_fd_sc_mcu7t5v0__filltie
XFILLER_0_11_218 vdd vdd vss vss gf180mcu_fd_sc_mcu7t5v0__fillcap_16
X_0967_ _0063_ _0298_ _0433_ vdd vdd vss vss gf180mcu_fd_sc_mcu7t5v0__xnor2_1
XFILLER_0_49_70 vdd vdd vss vss gf180mcu_fd_sc_mcu7t5v0__fillcap_32
X_0898_ _0365_ _0360_ _0369_ _0370_ _0371_ vdd vdd vss vss gf180mcu_fd_sc_mcu7t5v0__aoi22_1
XPHY_EDGE_ROW_12_Right_12 vdd vss gf180mcu_fd_sc_mcu7t5v0__endcap
XPHY_EDGE_ROW_21_Right_21 vdd vss gf180mcu_fd_sc_mcu7t5v0__endcap
XFILLER_0_37_148 vdd vdd vss vss gf180mcu_fd_sc_mcu7t5v0__fillcap_4
XPHY_EDGE_ROW_30_Right_30 vdd vss gf180mcu_fd_sc_mcu7t5v0__endcap
XFILLER_0_28_104 vdd vdd vss vss gf180mcu_fd_sc_mcu7t5v0__fill_1
XANTENNA__0852__I _0295_ vdd vdd vss vss gf180mcu_fd_sc_mcu7t5v0__antenna
XFILLER_0_36_192 vdd vdd vss vss gf180mcu_fd_sc_mcu7t5v0__fill_2
X_0821_ _0235_ _0299_ _0304_ _0301_ _0305_ vdd vdd vss vss gf180mcu_fd_sc_mcu7t5v0__oai211_1
X_0752_ net4 _0241_ vdd vdd vss vss gf180mcu_fd_sc_mcu7t5v0__clkinv_1
X_0683_ _0166_ _0164_ _0180_ _0181_ vdd vdd vss vss gf180mcu_fd_sc_mcu7t5v0__nor3_1
XPHY_EDGE_ROW_24_Left_74 vdd vss gf180mcu_fd_sc_mcu7t5v0__endcap
XANTENNA__1117__CLK clknet_3_2__leaf_wb_clk_i vdd vdd vss vss gf180mcu_fd_sc_mcu7t5v0__antenna
X_1166_ _0053_ clknet_3_4__leaf_wb_clk_i solo_squash.v\[6\] vdd vdd vss vss gf180mcu_fd_sc_mcu7t5v0__dffq_1
XFILLER_0_35_94 vdd vdd vss vss gf180mcu_fd_sc_mcu7t5v0__fill_1
XFILLER_0_34_107 vdd vdd vss vss gf180mcu_fd_sc_mcu7t5v0__fillcap_32
X_1097_ solo_squash.v\[4\] _0191_ _0538_ _0543_ vdd vdd vss vss gf180mcu_fd_sc_mcu7t5v0__and3_1
XTAP_TAPCELL_ROW_22_205 vdd vss gf180mcu_fd_sc_mcu7t5v0__filltie
XTAP_TAPCELL_ROW_45_308 vdd vss gf180mcu_fd_sc_mcu7t5v0__filltie
Xclkbuf_3_6__f_wb_clk_i clknet_0_wb_clk_i clknet_3_6__leaf_wb_clk_i vdd vdd vss vss
+ gf180mcu_fd_sc_mcu7t5v0__clkbuf_16
X_1020_ _0083_ _0317_ _0482_ vdd vdd vss vss gf180mcu_fd_sc_mcu7t5v0__xor2_1
XFILLER_0_16_107 vdd vdd vss vss gf180mcu_fd_sc_mcu7t5v0__fillcap_16
X_0804_ _0247_ _0288_ _0289_ vdd vdd vss vss gf180mcu_fd_sc_mcu7t5v0__nand2_1
XFILLER_0_24_173 vdd vdd vss vss gf180mcu_fd_sc_mcu7t5v0__fill_2
X_0735_ _0207_ _0226_ vdd vdd vss vss gf180mcu_fd_sc_mcu7t5v0__clkbuf_2
X_0666_ solo_squash.ballY\[7\] _0164_ vdd vdd vss vss gf180mcu_fd_sc_mcu7t5v0__buf_1
X_0597_ solo_squash.h\[2\] _0100_ vdd vdd vss vss gf180mcu_fd_sc_mcu7t5v0__clkbuf_2
X_1149_ _0036_ clknet_3_2__leaf_wb_clk_i solo_squash.h\[0\] vdd vdd vss vss gf180mcu_fd_sc_mcu7t5v0__dffq_1
XFILLER_0_38_243 vdd vdd vss vss gf180mcu_fd_sc_mcu7t5v0__fill_2
XFILLER_0_38_298 vdd vdd vss vss gf180mcu_fd_sc_mcu7t5v0__fill_2
XFILLER_0_21_165 vdd vdd vss vss gf180mcu_fd_sc_mcu7t5v0__fill_2
X_1003_ _0461_ _0465_ _0467_ _0168_ _0186_ _0032_ vdd vdd vss vss gf180mcu_fd_sc_mcu7t5v0__aoi221_1
XFILLER_0_32_84 vdd vdd vss vss gf180mcu_fd_sc_mcu7t5v0__fill_1
XFILLER_0_29_232 vdd vdd vss vss gf180mcu_fd_sc_mcu7t5v0__fill_1
XFILLER_0_8_104 vdd vdd vss vss gf180mcu_fd_sc_mcu7t5v0__fill_1
XFILLER_0_8_115 vdd vdd vss vss gf180mcu_fd_sc_mcu7t5v0__fillcap_8
XPHY_EDGE_ROW_6_Right_6 vdd vss gf180mcu_fd_sc_mcu7t5v0__endcap
XFILLER_0_4_343 vdd vdd vss vss gf180mcu_fd_sc_mcu7t5v0__fill_1
X_0718_ _0208_ _0211_ _0212_ vdd vdd vss vss gf180mcu_fd_sc_mcu7t5v0__nand2_1
X_0649_ _0090_ _0134_ _0147_ _0148_ vdd vdd vss vss gf180mcu_fd_sc_mcu7t5v0__xor3_1
XPHY_EDGE_ROW_11_Left_61 vdd vss gf180mcu_fd_sc_mcu7t5v0__endcap
XFILLER_0_9_2 vdd vdd vss vss gf180mcu_fd_sc_mcu7t5v0__fillcap_4
Xoutput10 net10 debug_gpio_ready vdd vdd vss vss gf180mcu_fd_sc_mcu7t5v0__clkbuf_3
Xoutput21 net21 vsync vdd vdd vss vss gf180mcu_fd_sc_mcu7t5v0__buf_3
Xoutput8 net8 blue vdd vdd vss vss gf180mcu_fd_sc_mcu7t5v0__buf_3
XFILLER_0_41_205 vdd vdd vss vss gf180mcu_fd_sc_mcu7t5v0__fill_2
XANTENNA_input3_I gpio_ready vdd vdd vss vss gf180mcu_fd_sc_mcu7t5v0__antenna
XFILLER_0_43_94 vdd vdd vss vss gf180mcu_fd_sc_mcu7t5v0__fillcap_8
XTAP_TAPCELL_ROW_17_182 vdd vss gf180mcu_fd_sc_mcu7t5v0__filltie
XFILLER_0_17_246 vdd vdd vss vss gf180mcu_fd_sc_mcu7t5v0__fill_1
XFILLER_0_17_279 vdd vdd vss vss gf180mcu_fd_sc_mcu7t5v0__fill_1
XFILLER_0_7_72 vdd vdd vss vss gf180mcu_fd_sc_mcu7t5v0__fillcap_8
XFILLER_0_4_195 vdd vdd vss vss gf180mcu_fd_sc_mcu7t5v0__fillcap_8
XFILLER_0_25_290 vdd vdd vss vss gf180mcu_fd_sc_mcu7t5v0__fill_2
XANTENNA__0708__A2 _0203_ vdd vdd vss vss gf180mcu_fd_sc_mcu7t5v0__antenna
XFILLER_0_23_227 vdd vdd vss vss gf180mcu_fd_sc_mcu7t5v0__fill_1
XANTENNA__1150__CLK clknet_3_2__leaf_wb_clk_i vdd vdd vss vss gf180mcu_fd_sc_mcu7t5v0__antenna
X_0983_ _0117_ _0441_ _0446_ _0447_ _0448_ vdd vdd vss vss gf180mcu_fd_sc_mcu7t5v0__aoi211_1
XFILLER_0_13_31 vdd vdd vss vss gf180mcu_fd_sc_mcu7t5v0__fill_2
XFILLER_0_14_227 vdd vdd vss vss gf180mcu_fd_sc_mcu7t5v0__fillcap_16
XFILLER_0_38_94 vdd vdd vss vss gf180mcu_fd_sc_mcu7t5v0__fillcap_8
XANTENNA__0714__B _0208_ vdd vdd vss vss gf180mcu_fd_sc_mcu7t5v0__antenna
XFILLER_0_9_221 vdd vdd vss vss gf180mcu_fd_sc_mcu7t5v0__fillcap_8
XTAP_TAPCELL_ROW_20_199 vdd vss gf180mcu_fd_sc_mcu7t5v0__filltie
XTAP_TAPCELL_ROW_5_131 vdd vss gf180mcu_fd_sc_mcu7t5v0__filltie
XFILLER_0_0_6 vdd vdd vss vss gf180mcu_fd_sc_mcu7t5v0__fillcap_16
XFILLER_0_13_282 vdd vdd vss vss gf180mcu_fd_sc_mcu7t5v0__fill_2
XTAP_TAPCELL_ROW_28_233 vdd vss gf180mcu_fd_sc_mcu7t5v0__filltie
XANTENNA__0626__A1 _0086_ vdd vdd vss vss gf180mcu_fd_sc_mcu7t5v0__antenna
XTAP_TAPCELL_ROW_11_155 vdd vss gf180mcu_fd_sc_mcu7t5v0__filltie
XTAP_TAPCELL_ROW_34_258 vdd vss gf180mcu_fd_sc_mcu7t5v0__filltie
XFILLER_0_19_308 vdd vdd vss vss gf180mcu_fd_sc_mcu7t5v0__fill_1
XFILLER_0_19_319 vdd vdd vss vss gf180mcu_fd_sc_mcu7t5v0__fill_1
XFILLER_0_42_333 vdd vdd vss vss gf180mcu_fd_sc_mcu7t5v0__fillcap_8
XFILLER_0_39_190 vdd vdd vss vss gf180mcu_fd_sc_mcu7t5v0__fillcap_4
X_0897_ _0202_ _0370_ vdd vdd vss vss gf180mcu_fd_sc_mcu7t5v0__buf_1
XFILLER_0_6_279 vdd vdd vss vss gf180mcu_fd_sc_mcu7t5v0__fill_2
X_0966_ _0184_ solo_squash.paddle\[6\] _0432_ vdd vdd vss vss gf180mcu_fd_sc_mcu7t5v0__xor2_1
XFILLER_0_49_60 vdd vdd vss vss gf180mcu_fd_sc_mcu7t5v0__fill_1
XFILLER_0_10_230 vdd vdd vss vss gf180mcu_fd_sc_mcu7t5v0__fillcap_4
XFILLER_0_10_252 vdd vdd vss vss gf180mcu_fd_sc_mcu7t5v0__fillcap_16
Xclkbuf_3_5__f_wb_clk_i clknet_0_wb_clk_i clknet_3_5__leaf_wb_clk_i vdd vdd vss vss
+ gf180mcu_fd_sc_mcu7t5v0__clkbuf_16
XFILLER_0_37_138 vdd vdd vss vss gf180mcu_fd_sc_mcu7t5v0__fill_2
XFILLER_0_33_300 vdd vdd vss vss gf180mcu_fd_sc_mcu7t5v0__fillcap_4
XFILLER_0_36_171 vdd vdd vss vss gf180mcu_fd_sc_mcu7t5v0__fill_2
XANTENNA__1024__A1 _0473_ vdd vdd vss vss gf180mcu_fd_sc_mcu7t5v0__antenna
XFILLER_0_10_43 vdd vdd vss vss gf180mcu_fd_sc_mcu7t5v0__fill_2
X_0751_ solo_squash.paddle\[3\] _0240_ vdd vdd vss vss gf180mcu_fd_sc_mcu7t5v0__buf_1
X_0820_ _0298_ _0219_ _0304_ vdd vdd vss vss gf180mcu_fd_sc_mcu7t5v0__nor2_1
X_0682_ _0179_ solo_squash.ballY\[5\] _0180_ vdd vdd vss vss gf180mcu_fd_sc_mcu7t5v0__or2_1
X_1096_ _0473_ _0538_ _0542_ vdd vdd vss vss gf180mcu_fd_sc_mcu7t5v0__nand2_1
XFILLER_0_19_96 vdd vdd vss vss gf180mcu_fd_sc_mcu7t5v0__fillcap_4
X_1165_ _0052_ clknet_3_4__leaf_wb_clk_i solo_squash.v\[5\] vdd vdd vss vss gf180mcu_fd_sc_mcu7t5v0__dffq_1
XFILLER_0_19_116 vdd vdd vss vss gf180mcu_fd_sc_mcu7t5v0__fillcap_16
XFILLER_0_19_149 vdd vdd vss vss gf180mcu_fd_sc_mcu7t5v0__fill_2
XTAP_TAPCELL_ROW_22_206 vdd vss gf180mcu_fd_sc_mcu7t5v0__filltie
XFILLER_0_27_171 vdd vdd vss vss gf180mcu_fd_sc_mcu7t5v0__fill_1
X_0949_ _0413_ _0414_ _0415_ _0416_ vdd vdd vss vss gf180mcu_fd_sc_mcu7t5v0__oai21_1
XFILLER_0_30_314 vdd vdd vss vss gf180mcu_fd_sc_mcu7t5v0__fill_1
XFILLER_0_15_344 vdd vdd vss vss gf180mcu_fd_sc_mcu7t5v0__fillcap_4
XFILLER_0_27_182 vdd vdd vss vss gf180mcu_fd_sc_mcu7t5v0__fill_1
XTAP_TAPCELL_ROW_45_309 vdd vss gf180mcu_fd_sc_mcu7t5v0__filltie
XPHY_EDGE_ROW_41_Left_91 vdd vss gf180mcu_fd_sc_mcu7t5v0__endcap
XANTENNA__0829__A1 _0241_ vdd vdd vss vss gf180mcu_fd_sc_mcu7t5v0__antenna
XFILLER_0_18_160 vdd vdd vss vss gf180mcu_fd_sc_mcu7t5v0__fill_1
XFILLER_0_18_193 vdd vdd vss vss gf180mcu_fd_sc_mcu7t5v0__fillcap_8
XFILLER_0_21_314 vdd vdd vss vss gf180mcu_fd_sc_mcu7t5v0__fill_2
X_0665_ solo_squash.ballY\[3\] solo_squash.ballY\[4\] _0163_ vdd vdd vss vss gf180mcu_fd_sc_mcu7t5v0__and2_1
X_0803_ solo_squash.paddle\[6\] _0262_ _0268_ _0288_ vdd vdd vss vss gf180mcu_fd_sc_mcu7t5v0__nand3_1
X_0734_ _0198_ _0219_ _0214_ _0225_ vdd vdd vss vss gf180mcu_fd_sc_mcu7t5v0__oai21_1
X_0596_ _0098_ _0099_ vdd vdd vss vss gf180mcu_fd_sc_mcu7t5v0__clkbuf_1
X_1148_ _0035_ clknet_3_6__leaf_wb_clk_i solo_squash.inBallY vdd vdd vss vss gf180mcu_fd_sc_mcu7t5v0__dffq_1
X_1079_ _0421_ _0196_ _0529_ vdd vdd vss vss gf180mcu_fd_sc_mcu7t5v0__nor2_1
XFILLER_0_30_166 vdd vdd vss vss gf180mcu_fd_sc_mcu7t5v0__fill_1
XFILLER_0_21_155 vdd vdd vss vss gf180mcu_fd_sc_mcu7t5v0__fill_2
X_1002_ _0177_ _0466_ _0467_ vdd vdd vss vss gf180mcu_fd_sc_mcu7t5v0__nand2_1
XFILLER_0_29_200 vdd vdd vss vss gf180mcu_fd_sc_mcu7t5v0__fill_1
XFILLER_0_16_31 vdd vdd vss vss gf180mcu_fd_sc_mcu7t5v0__fill_2
XFILLER_0_29_266 vdd vdd vss vss gf180mcu_fd_sc_mcu7t5v0__fill_1
XFILLER_0_4_333 vdd vdd vss vss gf180mcu_fd_sc_mcu7t5v0__fillcap_8
XFILLER_0_4_311 vdd vdd vss vss gf180mcu_fd_sc_mcu7t5v0__fillcap_4
X_0717_ solo_squash.offset\[3\] _0206_ _0211_ vdd vdd vss vss gf180mcu_fd_sc_mcu7t5v0__nand2_1
XFILLER_0_12_166 vdd vdd vss vss gf180mcu_fd_sc_mcu7t5v0__fillcap_8
X_0648_ solo_squash.h\[4\] _0146_ _0147_ vdd vdd vss vss gf180mcu_fd_sc_mcu7t5v0__xor2_1
XFILLER_0_32_2 vdd vdd vss vss gf180mcu_fd_sc_mcu7t5v0__fillcap_32
X_0579_ _0081_ _0082_ vdd vdd vss vss gf180mcu_fd_sc_mcu7t5v0__clkinv_1
XFILLER_0_35_214 vdd vdd vss vss gf180mcu_fd_sc_mcu7t5v0__fill_1
XFILLER_0_7_193 vdd vdd vss vss gf180mcu_fd_sc_mcu7t5v0__fillcap_4
Xoutput9 net26 debug_design_reset vdd vdd vss vss gf180mcu_fd_sc_mcu7t5v0__clkbuf_3
Xoutput11 net11 green vdd vdd vss vss gf180mcu_fd_sc_mcu7t5v0__clkbuf_3
XFILLER_0_26_247 vdd vdd vss vss gf180mcu_fd_sc_mcu7t5v0__fillcap_4
XFILLER_0_1_314 vdd vdd vss vss gf180mcu_fd_sc_mcu7t5v0__fillcap_16
XFILLER_0_27_41 vdd vdd vss vss gf180mcu_fd_sc_mcu7t5v0__fill_1
XFILLER_0_49_328 vdd vdd vss vss gf180mcu_fd_sc_mcu7t5v0__fillcap_4
XTAP_TAPCELL_ROW_17_183 vdd vss gf180mcu_fd_sc_mcu7t5v0__filltie
XFILLER_0_23_206 vdd vdd vss vss gf180mcu_fd_sc_mcu7t5v0__fillcap_4
XFILLER_0_13_43 vdd vdd vss vss gf180mcu_fd_sc_mcu7t5v0__fillcap_8
X_0982_ _0102_ _0365_ _0447_ vdd vdd vss vss gf180mcu_fd_sc_mcu7t5v0__xor2_1
Xclkbuf_3_4__f_wb_clk_i clknet_0_wb_clk_i clknet_3_4__leaf_wb_clk_i vdd vdd vss vss
+ gf180mcu_fd_sc_mcu7t5v0__clkbuf_16
XFILLER_0_45_320 vdd vdd vss vss gf180mcu_fd_sc_mcu7t5v0__fillcap_16
XFILLER_0_9_277 vdd vdd vss vss gf180mcu_fd_sc_mcu7t5v0__fill_2
XANTENNA__0730__B _0208_ vdd vdd vss vss gf180mcu_fd_sc_mcu7t5v0__antenna
XTAP_TAPCELL_ROW_28_234 vdd vss gf180mcu_fd_sc_mcu7t5v0__filltie
XFILLER_0_28_309 vdd vdd vss vss gf180mcu_fd_sc_mcu7t5v0__fillcap_4
XFILLER_0_36_331 vdd vdd vss vss gf180mcu_fd_sc_mcu7t5v0__fill_2
XTAP_TAPCELL_ROW_11_156 vdd vss gf180mcu_fd_sc_mcu7t5v0__filltie
XTAP_TAPCELL_ROW_34_259 vdd vss gf180mcu_fd_sc_mcu7t5v0__filltie
X_0896_ _0366_ _0368_ _0369_ vdd vdd vss vss gf180mcu_fd_sc_mcu7t5v0__xor2_1
XFILLER_0_42_345 vdd vdd vss vss gf180mcu_fd_sc_mcu7t5v0__fill_2
XFILLER_0_42_301 vdd vdd vss vss gf180mcu_fd_sc_mcu7t5v0__fillcap_8
XFILLER_0_6_247 vdd vdd vss vss gf180mcu_fd_sc_mcu7t5v0__fillcap_16
X_0965_ _0421_ _0423_ _0425_ _0430_ _0431_ vdd vdd vss vss gf180mcu_fd_sc_mcu7t5v0__nor4_2
XFILLER_0_4_30 vdd vdd vss vss gf180mcu_fd_sc_mcu7t5v0__fillcap_4
XFILLER_0_10_242 vdd vdd vss vss gf180mcu_fd_sc_mcu7t5v0__fill_2
XFILLER_0_10_275 vdd vdd vss vss gf180mcu_fd_sc_mcu7t5v0__fillcap_4
XFILLER_0_33_312 vdd vdd vss vss gf180mcu_fd_sc_mcu7t5v0__fillcap_4
XANTENNA__1140__CLK clknet_3_7__leaf_wb_clk_i vdd vdd vss vss gf180mcu_fd_sc_mcu7t5v0__antenna
X_0681_ solo_squash.ballY\[4\] _0179_ vdd vdd vss vss gf180mcu_fd_sc_mcu7t5v0__buf_1
XFILLER_0_36_161 vdd vdd vss vss gf180mcu_fd_sc_mcu7t5v0__fill_2
X_0750_ _0200_ _0237_ _0239_ _0007_ vdd vdd vss vss gf180mcu_fd_sc_mcu7t5v0__nor3_1
XFILLER_0_10_33 vdd vdd vss vss gf180mcu_fd_sc_mcu7t5v0__fill_2
XFILLER_0_24_334 vdd vdd vss vss gf180mcu_fd_sc_mcu7t5v0__fillcap_8
XANTENNA__0596__I _0098_ vdd vdd vss vss gf180mcu_fd_sc_mcu7t5v0__antenna
X_1164_ _0051_ clknet_3_1__leaf_wb_clk_i solo_squash.v\[4\] vdd vdd vss vss gf180mcu_fd_sc_mcu7t5v0__dffq_1
X_1095_ _0396_ _0541_ _0050_ vdd vdd vss vss gf180mcu_fd_sc_mcu7t5v0__nor2_1
XFILLER_0_29_8 vdd vdd vss vss gf180mcu_fd_sc_mcu7t5v0__fill_2
X_0948_ _0374_ _0168_ _0415_ vdd vdd vss vss gf180mcu_fd_sc_mcu7t5v0__xor2_1
XTAP_TAPCELL_ROW_30_240 vdd vss gf180mcu_fd_sc_mcu7t5v0__filltie
XANTENNA__1163__CLK clknet_3_3__leaf_wb_clk_i vdd vdd vss vss gf180mcu_fd_sc_mcu7t5v0__antenna
XTAP_TAPCELL_ROW_22_207 vdd vss gf180mcu_fd_sc_mcu7t5v0__filltie
XFILLER_0_42_186 vdd vdd vss vss gf180mcu_fd_sc_mcu7t5v0__fill_2
X_0879_ _0354_ _0350_ _0355_ vdd vdd vss vss gf180mcu_fd_sc_mcu7t5v0__nand2_1
XANTENNA__0765__A1 _0187_ vdd vdd vss vss gf180mcu_fd_sc_mcu7t5v0__antenna
XFILLER_0_18_172 vdd vdd vss vss gf180mcu_fd_sc_mcu7t5v0__fill_2
XFILLER_0_8_309 vdd vdd vss vss gf180mcu_fd_sc_mcu7t5v0__fillcap_4
X_0802_ _0275_ _0265_ _0287_ vdd vdd vss vss gf180mcu_fd_sc_mcu7t5v0__nor2_1
X_0664_ solo_squash.ballY\[5\] _0162_ vdd vdd vss vss gf180mcu_fd_sc_mcu7t5v0__buf_1
X_0733_ _0223_ _0224_ vdd vdd vss vss gf180mcu_fd_sc_mcu7t5v0__buf_1
XFILLER_0_24_153 vdd vdd vss vss gf180mcu_fd_sc_mcu7t5v0__fillcap_4
XFILLER_0_24_142 vdd vdd vss vss gf180mcu_fd_sc_mcu7t5v0__fillcap_4
X_0595_ solo_squash.h\[1\] _0098_ vdd vdd vss vss gf180mcu_fd_sc_mcu7t5v0__clkbuf_2
XFILLER_0_47_212 vdd vdd vss vss gf180mcu_fd_sc_mcu7t5v0__fillcap_4
X_1078_ _0155_ _0528_ vdd vdd vss vss gf180mcu_fd_sc_mcu7t5v0__clkbuf_1
X_1147_ _0034_ clknet_3_3__leaf_wb_clk_i solo_squash.ballDirX vdd vdd vss vss gf180mcu_fd_sc_mcu7t5v0__dffq_1
XFILLER_0_15_131 vdd vdd vss vss gf180mcu_fd_sc_mcu7t5v0__fill_2
XFILLER_0_15_142 vdd vdd vss vss gf180mcu_fd_sc_mcu7t5v0__fill_2
XFILLER_0_30_156 vdd vdd vss vss gf180mcu_fd_sc_mcu7t5v0__fill_2
XFILLER_0_30_123 vdd vdd vss vss gf180mcu_fd_sc_mcu7t5v0__fillcap_4
XFILLER_0_38_278 vdd vdd vss vss gf180mcu_fd_sc_mcu7t5v0__fillcap_16
X_1001_ _0173_ _0394_ _0466_ vdd vdd vss vss gf180mcu_fd_sc_mcu7t5v0__nand2_1
XFILLER_0_29_212 vdd vdd vss vss gf180mcu_fd_sc_mcu7t5v0__fillcap_16
XFILLER_0_29_278 vdd vdd vss vss gf180mcu_fd_sc_mcu7t5v0__fill_2
X_0716_ solo_squash.offset\[3\] _0206_ _0210_ vdd vdd vss vss gf180mcu_fd_sc_mcu7t5v0__nor2_1
X_0647_ _0136_ _0144_ _0145_ _0146_ vdd vdd vss vss gf180mcu_fd_sc_mcu7t5v0__aoi21_1
X_0578_ solo_squash.v\[3\] _0081_ vdd vdd vss vss gf180mcu_fd_sc_mcu7t5v0__clkbuf_1
XFILLER_0_25_2 vdd vdd vss vss gf180mcu_fd_sc_mcu7t5v0__fillcap_16
XFILLER_0_7_150 vdd vdd vss vss gf180mcu_fd_sc_mcu7t5v0__fillcap_4