*SPEF "ieee 1481-1999"
*DESIGN "solo_squash_caravel_gf180"
*DATE "11:11:11 Fri 11 11, 1111"
*VENDOR "OpenRCX"
*PROGRAM "Parallel Extraction"
*VERSION "1.0"
*DESIGN_FLOW "NAME_SCOPE LOCAL" "PIN_CAP NONE"
*DIVIDER /
*DELIMITER :
*BUS_DELIMITER []
*T_UNIT 1 NS
*C_UNIT 1 PF
*R_UNIT 1 OHM
*L_UNIT 1 HENRY

*NAME_MAP
*1 blue
*2 debug_design_reset
*3 debug_gpio_ready
*4 down_key_n
*5 ext_reset_n
*6 gpio_ready
*7 green
*8 hsync
*9 net28
*10 net38
*11 net39
*12 net40
*13 io_oeb[13]
*14 io_oeb[14]
*15 io_oeb[15]
*16 io_oeb[16]
*17 io_oeb[17]
*18 io_oeb[18]
*19 net41
*20 net29
*21 net42
*22 net43
*23 net44
*24 net45
*25 net46
*26 net47
*27 net48
*28 net49
*29 net50
*30 net51
*31 net30
*32 net52
*33 net53
*34 net54
*35 net55
*36 net56
*37 net57
*38 net58
*39 net59
*40 net31
*41 net32
*42 net33
*43 net34
*44 net35
*45 net36
*46 net37
*47 new_game_n
*48 pause_n
*49 red
*50 speaker
*51 up_key_n
*54 vsync
*55 wb_clk_i
*56 wb_rst_i
*57 _0000_
*58 _0001_
*59 _0002_
*60 _0003_
*61 _0004_
*62 _0005_
*63 _0006_
*64 _0007_
*65 _0008_
*66 _0009_
*67 _0010_
*68 _0011_
*69 _0012_
*70 _0013_
*71 _0014_
*72 _0015_
*73 _0016_
*74 _0017_
*75 _0018_
*76 _0019_
*77 _0020_
*78 _0021_
*79 _0022_
*80 _0023_
*81 _0024_
*82 _0025_
*83 _0026_
*84 _0027_
*85 _0028_
*86 _0029_
*87 _0030_
*88 _0031_
*89 _0032_
*90 _0033_
*91 _0034_
*92 _0035_
*93 _0036_
*94 _0037_
*95 _0038_
*96 _0039_
*97 _0040_
*98 _0041_
*99 _0042_
*100 _0043_
*101 _0044_
*102 _0045_
*103 _0046_
*104 _0047_
*105 _0048_
*106 _0049_
*107 _0050_
*108 _0051_
*109 _0052_
*110 _0053_
*111 _0054_
*112 _0055_
*113 _0056_
*114 _0057_
*115 _0058_
*116 _0059_
*117 _0060_
*118 _0061_
*119 _0062_
*120 _0063_
*121 _0064_
*122 _0065_
*123 _0066_
*124 _0067_
*125 _0068_
*126 _0069_
*127 _0070_
*128 _0071_
*129 _0072_
*130 _0073_
*131 _0074_
*132 _0075_
*133 _0076_
*134 _0077_
*135 _0078_
*136 _0079_
*137 _0080_
*138 _0081_
*139 _0082_
*140 _0083_
*141 _0084_
*142 _0085_
*143 _0086_
*144 _0087_
*145 _0088_
*146 _0089_
*147 _0090_
*148 _0091_
*149 _0092_
*150 _0093_
*151 _0094_
*152 _0095_
*153 _0096_
*154 _0097_
*155 _0098_
*156 _0099_
*157 _0100_
*158 _0101_
*159 _0102_
*160 _0103_
*161 _0104_
*162 _0105_
*163 _0106_
*164 _0107_
*165 _0108_
*166 _0109_
*167 _0110_
*168 _0111_
*169 _0112_
*170 _0113_
*171 _0114_
*172 _0115_
*173 _0116_
*174 _0117_
*175 _0118_
*176 _0119_
*177 _0120_
*178 _0121_
*179 _0122_
*180 _0123_
*181 _0124_
*182 _0125_
*183 _0126_
*184 _0127_
*185 _0128_
*186 _0129_
*187 _0130_
*188 _0131_
*189 _0132_
*190 _0133_
*191 _0134_
*192 _0135_
*193 _0136_
*194 _0137_
*195 _0138_
*196 _0139_
*197 _0140_
*198 _0141_
*199 _0142_
*200 _0143_
*201 _0144_
*202 _0145_
*203 _0146_
*204 _0147_
*205 _0148_
*206 _0149_
*207 _0150_
*208 _0151_
*209 _0152_
*210 _0153_
*211 _0154_
*212 _0155_
*213 _0156_
*214 _0157_
*215 _0158_
*216 _0159_
*217 _0160_
*218 _0161_
*219 _0162_
*220 _0163_
*221 _0164_
*222 _0165_
*223 _0166_
*224 _0167_
*225 _0168_
*226 _0169_
*227 _0170_
*228 _0171_
*229 _0172_
*230 _0173_
*231 _0174_
*232 _0175_
*233 _0176_
*234 _0177_
*235 _0178_
*236 _0179_
*237 _0180_
*238 _0181_
*239 _0182_
*240 _0183_
*241 _0184_
*242 _0185_
*243 _0186_
*244 _0187_
*245 _0188_
*246 _0189_
*247 _0190_
*248 _0191_
*249 _0192_
*250 _0193_
*251 _0194_
*252 _0195_
*253 _0196_
*254 _0197_
*255 _0198_
*256 _0199_
*257 _0200_
*258 _0201_
*259 _0202_
*260 _0203_
*261 _0204_
*262 _0205_
*263 _0206_
*264 _0207_
*265 _0208_
*266 _0209_
*267 _0210_
*268 _0211_
*269 _0212_
*270 _0213_
*271 _0214_
*272 _0215_
*273 _0216_
*274 _0217_
*275 _0218_
*276 _0219_
*277 _0220_
*278 _0221_
*279 _0222_
*280 _0223_
*281 _0224_
*282 _0225_
*283 _0226_
*284 _0227_
*285 _0228_
*286 _0229_
*287 _0230_
*288 _0231_
*289 _0232_
*290 _0233_
*291 _0234_
*292 _0235_
*293 _0236_
*294 _0237_
*295 _0238_
*296 _0239_
*297 _0240_
*298 _0241_
*299 _0242_
*300 _0243_
*301 _0244_
*302 _0245_
*303 _0246_
*304 _0247_
*305 _0248_
*306 _0249_
*307 _0250_
*308 _0251_
*309 _0252_
*310 _0253_
*311 _0254_
*312 _0255_
*313 _0256_
*314 _0257_
*315 _0258_
*316 _0259_
*317 _0260_
*318 _0261_
*319 _0262_
*320 _0263_
*321 _0264_
*322 _0265_
*323 _0266_
*324 _0267_
*325 _0268_
*326 _0269_
*327 _0270_
*328 _0271_
*329 _0272_
*330 _0273_
*331 _0274_
*332 _0275_
*333 _0276_
*334 _0277_
*335 _0278_
*336 _0279_
*337 _0280_
*338 _0281_
*339 _0282_
*340 _0283_
*341 _0284_
*342 _0285_
*343 _0286_
*344 _0287_
*345 _0288_
*346 _0289_
*347 _0290_
*348 _0291_
*349 _0292_
*350 _0293_
*351 _0294_
*352 _0295_
*353 _0296_
*354 _0297_
*355 _0298_
*356 _0299_
*357 _0300_
*358 _0301_
*359 _0302_
*360 _0303_
*361 _0304_
*362 _0305_
*363 _0306_
*364 _0307_
*365 _0308_
*366 _0309_
*367 _0310_
*368 _0311_
*369 _0312_
*370 _0313_
*371 _0314_
*372 _0315_
*373 _0316_
*374 _0317_
*375 _0318_
*376 _0319_
*377 _0320_
*378 _0321_
*379 _0322_
*380 _0323_
*381 _0324_
*382 _0325_
*383 _0326_
*384 _0327_
*385 _0328_
*386 _0329_
*387 _0330_
*388 _0331_
*389 _0332_
*390 _0333_
*391 _0334_
*392 _0335_
*393 _0336_
*394 _0337_
*395 _0338_
*396 _0339_
*397 _0340_
*398 _0341_
*399 _0342_
*400 _0343_
*401 _0344_
*402 _0345_
*403 _0346_
*404 _0347_
*405 _0348_
*406 _0349_
*407 _0350_
*408 _0351_
*409 _0352_
*410 _0353_
*411 _0354_
*412 _0355_
*413 _0356_
*414 _0357_
*415 _0358_
*416 _0359_
*417 _0360_
*418 _0361_
*419 _0362_
*420 _0363_
*421 _0364_
*422 _0365_
*423 _0366_
*424 _0367_
*425 _0368_
*426 _0369_
*427 _0370_
*428 _0371_
*429 _0372_
*430 _0373_
*431 _0374_
*432 _0375_
*433 _0376_
*434 _0377_
*435 _0378_
*436 _0379_
*437 _0380_
*438 _0381_
*439 _0382_
*440 _0383_
*441 _0384_
*442 _0385_
*443 _0386_
*444 _0387_
*445 _0388_
*446 _0389_
*447 _0390_
*448 _0391_
*449 _0392_
*450 _0393_
*451 _0394_
*452 _0395_
*453 _0396_
*454 _0397_
*455 _0398_
*456 _0399_
*457 _0400_
*458 _0401_
*459 _0402_
*460 _0403_
*461 _0404_
*462 _0405_
*463 _0406_
*464 _0407_
*465 _0408_
*466 _0409_
*467 _0410_
*468 _0411_
*469 _0412_
*470 _0413_
*471 _0414_
*472 _0415_
*473 _0416_
*474 _0417_
*475 _0418_
*476 _0419_
*477 _0420_
*478 _0421_
*479 _0422_
*480 _0423_
*481 _0424_
*482 _0425_
*483 _0426_
*484 _0427_
*485 _0428_
*486 _0429_
*487 _0430_
*488 _0431_
*489 _0432_
*490 _0433_
*491 _0434_
*492 _0435_
*493 _0436_
*494 _0437_
*495 _0438_
*496 _0439_
*497 _0440_
*498 _0441_
*499 _0442_
*500 _0443_
*501 _0444_
*502 _0445_
*503 _0446_
*504 _0447_
*505 _0448_
*506 _0449_
*507 _0450_
*508 _0451_
*509 _0452_
*510 _0453_
*511 _0454_
*512 _0455_
*513 _0456_
*514 _0457_
*515 _0458_
*516 _0459_
*517 _0460_
*518 _0461_
*519 _0462_
*520 _0463_
*521 _0464_
*522 _0465_
*523 _0466_
*524 _0467_
*525 _0468_
*526 _0469_
*527 _0470_
*528 _0471_
*529 _0472_
*530 _0473_
*531 _0474_
*532 _0475_
*533 _0476_
*534 _0477_
*535 _0478_
*536 _0479_
*537 _0480_
*538 _0481_
*539 _0482_
*540 _0483_
*541 _0484_
*542 _0485_
*543 _0486_
*544 _0487_
*545 _0488_
*546 _0489_
*547 _0490_
*548 _0491_
*549 _0492_
*550 _0493_
*551 _0494_
*552 _0495_
*553 _0496_
*554 _0497_
*555 _0498_
*556 _0499_
*557 _0500_
*558 _0501_
*559 _0502_
*560 _0503_
*561 _0504_
*562 _0505_
*563 _0506_
*564 _0507_
*565 _0508_
*566 _0509_
*567 _0510_
*568 _0511_
*569 _0512_
*570 _0513_
*571 _0514_
*572 _0515_
*573 _0516_
*574 _0517_
*575 _0518_
*576 _0519_
*577 _0520_
*578 _0521_
*579 _0522_
*580 _0523_
*581 _0524_
*582 _0525_
*583 _0526_
*584 _0527_
*585 _0528_
*586 _0529_
*587 _0530_
*588 _0531_
*589 _0532_
*590 _0533_
*591 _0534_
*592 _0535_
*593 _0536_
*594 _0537_
*595 _0538_
*596 _0539_
*597 _0540_
*598 _0541_
*599 _0542_
*600 _0543_
*601 _0544_
*602 _0545_
*603 _0546_
*604 _0547_
*605 _0548_
*606 _0549_
*607 _0550_
*608 _0551_
*609 _0552_
*610 clknet_0_wb_clk_i
*611 clknet_3_0__leaf_wb_clk_i
*612 clknet_3_1__leaf_wb_clk_i
*613 clknet_3_2__leaf_wb_clk_i
*614 clknet_3_3__leaf_wb_clk_i
*615 clknet_3_4__leaf_wb_clk_i
*616 clknet_3_5__leaf_wb_clk_i
*617 clknet_3_6__leaf_wb_clk_i
*618 clknet_3_7__leaf_wb_clk_i
*619 net1
*620 net10
*621 net11
*622 net12
*623 net13
*624 net14
*625 net15
*626 net16
*627 net17
*628 net18
*629 net19
*630 net2
*631 net20
*632 net21
*633 net22
*634 net23
*635 net24
*636 net25
*637 net26
*638 net27
*639 net3
*640 net4
*641 net5
*642 net6
*643 net7
*644 net8
*645 net9
*646 solo_squash\.ballDirX
*647 solo_squash\.ballDirY
*648 solo_squash\.ballX\[0\]
*649 solo_squash\.ballX\[1\]
*650 solo_squash\.ballX\[2\]
*651 solo_squash\.ballX\[3\]
*652 solo_squash\.ballX\[4\]
*653 solo_squash\.ballX\[5\]
*654 solo_squash\.ballX\[6\]
*655 solo_squash\.ballX\[7\]
*656 solo_squash\.ballX\[8\]
*657 solo_squash\.ballY\[0\]
*658 solo_squash\.ballY\[1\]
*659 solo_squash\.ballY\[2\]
*660 solo_squash\.ballY\[3\]
*661 solo_squash\.ballY\[4\]
*662 solo_squash\.ballY\[5\]
*663 solo_squash\.ballY\[6\]
*664 solo_squash\.ballY\[7\]
*665 solo_squash\.h\[0\]
*666 solo_squash\.h\[1\]
*667 solo_squash\.h\[2\]
*668 solo_squash\.h\[3\]
*669 solo_squash\.h\[4\]
*670 solo_squash\.h\[5\]
*671 solo_squash\.h\[6\]
*672 solo_squash\.h\[7\]
*673 solo_squash\.h\[8\]
*674 solo_squash\.h\[9\]
*675 solo_squash\.hit
*676 solo_squash\.inBallX
*677 solo_squash\.inBallY
*678 solo_squash\.inPaddle
*679 solo_squash\.offset\[0\]
*680 solo_squash\.offset\[1\]
*681 solo_squash\.offset\[2\]
*682 solo_squash\.offset\[3\]
*683 solo_squash\.offset\[4\]
*684 solo_squash\.paddle\[0\]
*685 solo_squash\.paddle\[1\]
*686 solo_squash\.paddle\[2\]
*687 solo_squash\.paddle\[3\]
*688 solo_squash\.paddle\[4\]
*689 solo_squash\.paddle\[5\]
*690 solo_squash\.paddle\[6\]
*691 solo_squash\.paddle\[7\]
*692 solo_squash\.paddle\[8\]
*693 solo_squash\.v\[0\]
*694 solo_squash\.v\[1\]
*695 solo_squash\.v\[2\]
*696 solo_squash\.v\[3\]
*697 solo_squash\.v\[4\]
*698 solo_squash\.v\[5\]
*699 solo_squash\.v\[6\]
*700 solo_squash\.v\[7\]
*701 solo_squash\.v\[8\]
*702 solo_squash\.v\[9\]
*703 ANTENNA__0584__I
*704 ANTENNA__0585__A1
*705 ANTENNA__0589__A1
*706 ANTENNA__0596__I
*707 ANTENNA__0598__I
*708 ANTENNA__0626__A1
*709 ANTENNA__0643__A2
*710 ANTENNA__0649__A1
*711 ANTENNA__0652__A2
*712 ANTENNA__0691__A1
*713 ANTENNA__0691__A3
*714 ANTENNA__0695__I
*715 ANTENNA__0696__A2
*716 ANTENNA__0702__A2
*717 ANTENNA__0703__A1
*718 ANTENNA__0705__A2
*719 ANTENNA__0706__I
*720 ANTENNA__0708__A2
*721 ANTENNA__0709__A3
*722 ANTENNA__0710__A1
*723 ANTENNA__0714__B
*724 ANTENNA__0718__A1
*725 ANTENNA__0721__A1
*726 ANTENNA__0730__A1
*727 ANTENNA__0730__B
*728 ANTENNA__0734__A1
*729 ANTENNA__0734__B
*730 ANTENNA__0736__B
*731 ANTENNA__0747__C
*732 ANTENNA__0749__A2
*733 ANTENNA__0750__A1
*734 ANTENNA__0753__A1
*735 ANTENNA__0764__B2
*736 ANTENNA__0765__A1
*737 ANTENNA__0772__A1
*738 ANTENNA__0774__I
*739 ANTENNA__0786__B2
*740 ANTENNA__0798__B
*741 ANTENNA__0800__A1
*742 ANTENNA__0810__I
*743 ANTENNA__0811__I
*744 ANTENNA__0827__A2
*745 ANTENNA__0827__B
*746 ANTENNA__0828__A2
*747 ANTENNA__0829__A1
*748 ANTENNA__0833__A2
*749 ANTENNA__0835__I
*750 ANTENNA__0842__A2
*751 ANTENNA__0852__I
*752 ANTENNA__0867__A1
*753 ANTENNA__0868__A2
*754 ANTENNA__0869__A1
*755 ANTENNA__0874__B
*756 ANTENNA__0877__I
*757 ANTENNA__0884__A2
*758 ANTENNA__0884__B
*759 ANTENNA__0885__A2
*760 ANTENNA__0890__A2
*761 ANTENNA__0898__A2
*762 ANTENNA__0898__B2
*763 ANTENNA__0906__A2
*764 ANTENNA__0906__B2
*765 ANTENNA__0908__A2
*766 ANTENNA__0917__A1
*767 ANTENNA__0918__B
*768 ANTENNA__0922__B
*769 ANTENNA__0925__A2
*770 ANTENNA__0926__B
*771 ANTENNA__0927__I
*772 ANTENNA__0932__B
*773 ANTENNA__0934__A2
*774 ANTENNA__0935__A1
*775 ANTENNA__0942__B2
*776 ANTENNA__0943__A1
*777 ANTENNA__0944__A2
*778 ANTENNA__0951__A1
*779 ANTENNA__0952__B
*780 ANTENNA__0953__A1
*781 ANTENNA__0965__A1
*782 ANTENNA__0988__A1
*783 ANTENNA__0989__A1
*784 ANTENNA__1007__A1
*785 ANTENNA__1010__A1
*786 ANTENNA__1016__A1
*787 ANTENNA__1020__A1
*788 ANTENNA__1021__A1
*789 ANTENNA__1024__A1
*790 ANTENNA__1039__A1
*791 ANTENNA__1041__A2
*792 ANTENNA__1049__A1
*793 ANTENNA__1052__A1
*794 ANTENNA__1055__A1
*795 ANTENNA__1077__A1
*796 ANTENNA__1079__A1
*797 ANTENNA__1082__A2
*798 ANTENNA__1083__I
*799 ANTENNA__1085__A3
*800 ANTENNA__1091__A1
*801 ANTENNA__1093__A1
*802 ANTENNA__1095__A1
*803 ANTENNA__1096__A1
*804 ANTENNA__1097__A2
*805 ANTENNA__1099__A1
*806 ANTENNA__1099__C
*807 ANTENNA__1100__B
*808 ANTENNA__1104__A1
*809 ANTENNA__1113__CLK
*810 ANTENNA__1117__CLK
*811 ANTENNA__1118__CLK
*812 ANTENNA__1119__CLK
*813 ANTENNA__1120__CLK
*814 ANTENNA__1121__CLK
*815 ANTENNA__1122__CLK
*816 ANTENNA__1123__CLK
*817 ANTENNA__1132__CLK
*818 ANTENNA__1134__CLK
*819 ANTENNA__1135__CLK
*820 ANTENNA__1136__CLK
*821 ANTENNA__1137__CLK
*822 ANTENNA__1138__CLK
*823 ANTENNA__1139__CLK
*824 ANTENNA__1140__CLK
*825 ANTENNA__1141__CLK
*826 ANTENNA__1142__CLK
*827 ANTENNA__1143__CLK
*828 ANTENNA__1144__CLK
*829 ANTENNA__1145__CLK
*830 ANTENNA__1147__CLK
*831 ANTENNA__1148__CLK
*832 ANTENNA__1149__CLK
*833 ANTENNA__1150__CLK
*834 ANTENNA__1151__CLK
*835 ANTENNA__1152__CLK
*836 ANTENNA__1153__CLK
*837 ANTENNA__1154__CLK
*838 ANTENNA__1155__CLK
*839 ANTENNA__1156__CLK
*840 ANTENNA__1157__CLK
*841 ANTENNA__1158__CLK
*842 ANTENNA__1159__CLK
*843 ANTENNA__1163__CLK
*844 ANTENNA__1164__CLK
*845 ANTENNA__1168__CLK
*846 ANTENNA__1169__CLK
*847 ANTENNA_clkbuf_0_wb_clk_i_I
*848 ANTENNA_clkbuf_3_0__f_wb_clk_i_I
*849 ANTENNA_clkbuf_3_1__f_wb_clk_i_I
*850 ANTENNA_clkbuf_3_2__f_wb_clk_i_I
*851 ANTENNA_clkbuf_3_3__f_wb_clk_i_I
*852 ANTENNA_clkbuf_3_4__f_wb_clk_i_I
*853 ANTENNA_clkbuf_3_5__f_wb_clk_i_I
*854 ANTENNA_clkbuf_3_6__f_wb_clk_i_I
*855 ANTENNA_clkbuf_3_7__f_wb_clk_i_I
*856 ANTENNA_fanout26_I
*857 ANTENNA_input1_I
*858 ANTENNA_input2_I
*859 ANTENNA_input3_I
*860 ANTENNA_input4_I
*861 ANTENNA_input5_I
*862 ANTENNA_input6_I
*863 ANTENNA_input7_I
*864 FILLER_0_0_101
*865 FILLER_0_0_104
*866 FILLER_0_0_138
*867 FILLER_0_0_154
*868 FILLER_0_0_182
*869 FILLER_0_0_198
*870 FILLER_0_0_202
*871 FILLER_0_0_206
*872 FILLER_0_0_22
*873 FILLER_0_0_240
*874 FILLER_0_0_274
*875 FILLER_0_0_282
*876 FILLER_0_0_287
*877 FILLER_0_0_30
*878 FILLER_0_0_303
*879 FILLER_0_0_305
*880 FILLER_0_0_308
*881 FILLER_0_0_324
*882 FILLER_0_0_332
*883 FILLER_0_0_342
*884 FILLER_0_0_36
*885 FILLER_0_0_6
*886 FILLER_0_0_70
*887 FILLER_0_0_78
*888 FILLER_0_0_83
*889 FILLER_0_0_89
*890 FILLER_0_0_97
*891 FILLER_0_10_100
*892 FILLER_0_10_104
*893 FILLER_0_10_119
*894 FILLER_0_10_125
*895 FILLER_0_10_133
*896 FILLER_0_10_152
*897 FILLER_0_10_162
*898 FILLER_0_10_164
*899 FILLER_0_10_172
*900 FILLER_0_10_174
*901 FILLER_0_10_183
*902 FILLER_0_10_191
*903 FILLER_0_10_197
*904 FILLER_0_10_2
*905 FILLER_0_10_201
*906 FILLER_0_10_214
*907 FILLER_0_10_230
*908 FILLER_0_10_234
*909 FILLER_0_10_236
*910 FILLER_0_10_242
*911 FILLER_0_10_244
*912 FILLER_0_10_252
*913 FILLER_0_10_268
*914 FILLER_0_10_272
*915 FILLER_0_10_275
*916 FILLER_0_10_279
*917 FILLER_0_10_287
*918 FILLER_0_10_291
*919 FILLER_0_10_307
*920 FILLER_0_10_317
*921 FILLER_0_10_33
*922 FILLER_0_10_333
*923 FILLER_0_10_341
*924 FILLER_0_10_345
*925 FILLER_0_10_347
*926 FILLER_0_10_43
*927 FILLER_0_10_45
*928 FILLER_0_10_68
*929 FILLER_0_10_80
*930 FILLER_0_10_84
*931 FILLER_0_11_101
*932 FILLER_0_11_105
*933 FILLER_0_11_123
*934 FILLER_0_11_125
*935 FILLER_0_11_138
*936 FILLER_0_11_152
*937 FILLER_0_11_156
*938 FILLER_0_11_159
*939 FILLER_0_11_163
*940 FILLER_0_11_165
*941 FILLER_0_11_174
*942 FILLER_0_11_178
*943 FILLER_0_11_18
*944 FILLER_0_11_2
*945 FILLER_0_11_218
*946 FILLER_0_11_234
*947 FILLER_0_11_240
*948 FILLER_0_11_246
*949 FILLER_0_11_26
*950 FILLER_0_11_273
*951 FILLER_0_11_275
*952 FILLER_0_11_278
*953 FILLER_0_11_282
*954 FILLER_0_11_294
*955 FILLER_0_11_326
*956 FILLER_0_11_342
*957 FILLER_0_11_40
*958 FILLER_0_11_42
*959 FILLER_0_11_49
*960 FILLER_0_11_65
*961 FILLER_0_11_69
*962 FILLER_0_11_80
*963 FILLER_0_11_84
*964 FILLER_0_11_86
*965 FILLER_0_11_93
*966 FILLER_0_12_104
*967 FILLER_0_12_166
*968 FILLER_0_12_174
*969 FILLER_0_12_185
*970 FILLER_0_12_2
*971 FILLER_0_12_201
*972 FILLER_0_12_209
*973 FILLER_0_12_213
*974 FILLER_0_12_233
*975 FILLER_0_12_241
*976 FILLER_0_12_247
*977 FILLER_0_12_251
*978 FILLER_0_12_253
*979 FILLER_0_12_317
*980 FILLER_0_12_321
*981 FILLER_0_12_329
*982 FILLER_0_12_333
*983 FILLER_0_12_34
*984 FILLER_0_12_44
*985 FILLER_0_12_52
*986 FILLER_0_12_86
*987 FILLER_0_12_90
*988 FILLER_0_12_96
*989 FILLER_0_13_132
*990 FILLER_0_13_142
*991 FILLER_0_13_162
*992 FILLER_0_13_166
*993 FILLER_0_13_170
*994 FILLER_0_13_174
*995 FILLER_0_13_206
*996 FILLER_0_13_220
*997 FILLER_0_13_247
*998 FILLER_0_13_251
*999 FILLER_0_13_253
*1000 FILLER_0_13_282
*1001 FILLER_0_13_31
*1002 FILLER_0_13_315
*1003 FILLER_0_13_319
*1004 FILLER_0_13_335
*1005 FILLER_0_13_343
*1006 FILLER_0_13_347
*1007 FILLER_0_13_35
*1008 FILLER_0_13_37
*1009 FILLER_0_13_43
*1010 FILLER_0_13_51
*1011 FILLER_0_13_55
*1012 FILLER_0_13_57
*1013 FILLER_0_13_67
*1014 FILLER_0_13_69
*1015 FILLER_0_13_72
*1016 FILLER_0_13_82
*1017 FILLER_0_14_134
*1018 FILLER_0_14_140
*1019 FILLER_0_14_162
*1020 FILLER_0_14_177
*1021 FILLER_0_14_18
*1022 FILLER_0_14_181
*1023 FILLER_0_14_193
*1024 FILLER_0_14_195
*1025 FILLER_0_14_2
*1026 FILLER_0_14_227
*1027 FILLER_0_14_243
*1028 FILLER_0_14_259
*1029 FILLER_0_14_26
*1030 FILLER_0_14_28
*1031 FILLER_0_14_317
*1032 FILLER_0_14_333
*1033 FILLER_0_14_344
*1034 FILLER_0_14_53
*1035 FILLER_0_14_85
*1036 FILLER_0_14_93
*1037 FILLER_0_15_104
*1038 FILLER_0_15_108
*1039 FILLER_0_15_119
*1040 FILLER_0_15_123
*1041 FILLER_0_15_127
*1042 FILLER_0_15_131
*1043 FILLER_0_15_133
*1044 FILLER_0_15_136
*1045 FILLER_0_15_142
*1046 FILLER_0_15_144
*1047 FILLER_0_15_169
*1048 FILLER_0_15_177
*1049 FILLER_0_15_2
*1050 FILLER_0_15_235
*1051 FILLER_0_15_251
*1052 FILLER_0_15_253
*1053 FILLER_0_15_261
*1054 FILLER_0_15_272
*1055 FILLER_0_15_288
*1056 FILLER_0_15_330
*1057 FILLER_0_15_34
*1058 FILLER_0_15_344
*1059 FILLER_0_15_46
*1060 FILLER_0_15_50
*1061 FILLER_0_15_60
*1062 FILLER_0_15_72
*1063 FILLER_0_15_81
*1064 FILLER_0_15_85
*1065 FILLER_0_15_89
*1066 FILLER_0_15_96
*1067 FILLER_0_16_101
*1068 FILLER_0_16_107
*1069 FILLER_0_16_123
*1070 FILLER_0_16_131
*1071 FILLER_0_16_137
*1072 FILLER_0_16_139
*1073 FILLER_0_16_142
*1074 FILLER_0_16_144
*1075 FILLER_0_16_153
*1076 FILLER_0_16_155
*1077 FILLER_0_16_162
*1078 FILLER_0_16_170
*1079 FILLER_0_16_174
*1080 FILLER_0_16_177
*1081 FILLER_0_16_181
*1082 FILLER_0_16_183
*1083 FILLER_0_16_190
*1084 FILLER_0_16_194
*1085 FILLER_0_16_199
*1086 FILLER_0_16_203
*1087 FILLER_0_16_210
*1088 FILLER_0_16_214
*1089 FILLER_0_16_218
*1090 FILLER_0_16_234
*1091 FILLER_0_16_242
*1092 FILLER_0_16_244
*1093 FILLER_0_16_247
*1094 FILLER_0_16_263
*1095 FILLER_0_16_267
*1096 FILLER_0_16_275
*1097 FILLER_0_16_283
*1098 FILLER_0_16_300
*1099 FILLER_0_16_308
*1100 FILLER_0_16_31
*1101 FILLER_0_16_312
*1102 FILLER_0_16_317
*1103 FILLER_0_16_319
*1104 FILLER_0_16_344
*1105 FILLER_0_16_62
*1106 FILLER_0_16_66
*1107 FILLER_0_16_70
*1108 FILLER_0_16_77
*1109 FILLER_0_16_93
*1110 FILLER_0_17_10
*1111 FILLER_0_17_104
*1112 FILLER_0_17_14
*1113 FILLER_0_17_142
*1114 FILLER_0_17_144
*1115 FILLER_0_17_157
*1116 FILLER_0_17_166
*1117 FILLER_0_17_198
*1118 FILLER_0_17_2
*1119 FILLER_0_17_206
*1120 FILLER_0_17_212
*1121 FILLER_0_17_22
*1122 FILLER_0_17_244
*1123 FILLER_0_17_246
*1124 FILLER_0_17_265
*1125 FILLER_0_17_273
*1126 FILLER_0_17_277
*1127 FILLER_0_17_279
*1128 FILLER_0_17_288
*1129 FILLER_0_17_290
*1130 FILLER_0_17_307
*1131 FILLER_0_17_32
*1132 FILLER_0_17_36
*1133 FILLER_0_17_47
*1134 FILLER_0_17_49
*1135 FILLER_0_17_68
*1136 FILLER_0_17_72
*1137 FILLER_0_18_101
*1138 FILLER_0_18_107
*1139 FILLER_0_18_123
*1140 FILLER_0_18_131
*1141 FILLER_0_18_145
*1142 FILLER_0_18_160
*1143 FILLER_0_18_168
*1144 FILLER_0_18_172
*1145 FILLER_0_18_174
*1146 FILLER_0_18_177
*1147 FILLER_0_18_193
*1148 FILLER_0_18_2
*1149 FILLER_0_18_201
*1150 FILLER_0_18_205
*1151 FILLER_0_18_209
*1152 FILLER_0_18_213
*1153 FILLER_0_18_221
*1154 FILLER_0_18_225
*1155 FILLER_0_18_243
*1156 FILLER_0_18_282
*1157 FILLER_0_18_286
*1158 FILLER_0_18_298
*1159 FILLER_0_18_314
*1160 FILLER_0_18_34
*1161 FILLER_0_18_37
*1162 FILLER_0_18_45
*1163 FILLER_0_18_47
*1164 FILLER_0_18_53
*1165 FILLER_0_18_85
*1166 FILLER_0_19_100
*1167 FILLER_0_19_108
*1168 FILLER_0_19_116
*1169 FILLER_0_19_132
*1170 FILLER_0_19_142
*1171 FILLER_0_19_146
*1172 FILLER_0_19_149
*1173 FILLER_0_19_153
*1174 FILLER_0_19_155
*1175 FILLER_0_19_158
*1176 FILLER_0_19_162
*1177 FILLER_0_19_169
*1178 FILLER_0_19_173
*1179 FILLER_0_19_177
*1180 FILLER_0_19_18
*1181 FILLER_0_19_2
*1182 FILLER_0_19_207
*1183 FILLER_0_19_209
*1184 FILLER_0_19_212
*1185 FILLER_0_19_219
*1186 FILLER_0_19_221
*1187 FILLER_0_19_282
*1188 FILLER_0_19_286
*1189 FILLER_0_19_29
*1190 FILLER_0_19_308
*1191 FILLER_0_19_317
*1192 FILLER_0_19_319
*1193 FILLER_0_19_33
*1194 FILLER_0_19_330
*1195 FILLER_0_19_344
*1196 FILLER_0_19_47
*1197 FILLER_0_19_66
*1198 FILLER_0_19_72
*1199 FILLER_0_19_88
*1200 FILLER_0_19_96
*1201 FILLER_0_1_136
*1202 FILLER_0_1_142
*1203 FILLER_0_1_158
*1204 FILLER_0_1_189
*1205 FILLER_0_1_197
*1206 FILLER_0_1_207
*1207 FILLER_0_1_209
*1208 FILLER_0_1_212
*1209 FILLER_0_1_276
*1210 FILLER_0_1_282
*1211 FILLER_0_1_314
*1212 FILLER_0_1_330
*1213 FILLER_0_1_338
*1214 FILLER_0_1_6
*1215 FILLER_0_1_72
*1216 FILLER_0_20_12
*1217 FILLER_0_20_127
*1218 FILLER_0_20_135
*1219 FILLER_0_20_139
*1220 FILLER_0_20_177
*1221 FILLER_0_20_184
*1222 FILLER_0_20_192
*1223 FILLER_0_20_196
*1224 FILLER_0_20_198
*1225 FILLER_0_20_203
*1226 FILLER_0_20_241
*1227 FILLER_0_20_247
*1228 FILLER_0_20_249
*1229 FILLER_0_20_256
*1230 FILLER_0_20_275
*1231 FILLER_0_20_277
*1232 FILLER_0_20_284
*1233 FILLER_0_20_300
*1234 FILLER_0_20_308
*1235 FILLER_0_20_312
*1236 FILLER_0_20_314
*1237 FILLER_0_20_317
*1238 FILLER_0_20_32
*1239 FILLER_0_20_330
*1240 FILLER_0_20_34
*1241 FILLER_0_20_41
*1242 FILLER_0_20_48
*1243 FILLER_0_20_76
*1244 FILLER_0_20_8
*1245 FILLER_0_20_80
*1246 FILLER_0_20_89
*1247 FILLER_0_20_93
*1248 FILLER_0_21_120
*1249 FILLER_0_21_136
*1250 FILLER_0_21_142
*1251 FILLER_0_21_151
*1252 FILLER_0_21_155
*1253 FILLER_0_21_165
*1254 FILLER_0_21_185
*1255 FILLER_0_21_2
*1256 FILLER_0_21_201
*1257 FILLER_0_21_209
*1258 FILLER_0_21_227
*1259 FILLER_0_21_229
*1260 FILLER_0_21_236
*1261 FILLER_0_21_252
*1262 FILLER_0_21_254
*1263 FILLER_0_21_257
*1264 FILLER_0_21_265
*1265 FILLER_0_21_282
*1266 FILLER_0_21_284
*1267 FILLER_0_21_306
*1268 FILLER_0_21_314
*1269 FILLER_0_21_329
*1270 FILLER_0_21_333
*1271 FILLER_0_21_344
*1272 FILLER_0_21_50
*1273 FILLER_0_21_58
*1274 FILLER_0_21_72
*1275 FILLER_0_21_88
*1276 FILLER_0_22_102
*1277 FILLER_0_22_104
*1278 FILLER_0_22_112
*1279 FILLER_0_22_128
*1280 FILLER_0_22_169
*1281 FILLER_0_22_173
*1282 FILLER_0_22_185
*1283 FILLER_0_22_217
*1284 FILLER_0_22_233
*1285 FILLER_0_22_241
*1286 FILLER_0_22_255
*1287 FILLER_0_22_311
*1288 FILLER_0_22_317
*1289 FILLER_0_22_37
*1290 FILLER_0_22_52
*1291 FILLER_0_22_68
*1292 FILLER_0_22_8
*1293 FILLER_0_22_81
*1294 FILLER_0_22_85
*1295 FILLER_0_22_87
*1296 FILLER_0_23_10
*1297 FILLER_0_23_104
*1298 FILLER_0_23_114
*1299 FILLER_0_23_12
*1300 FILLER_0_23_142
*1301 FILLER_0_23_146
*1302 FILLER_0_23_163
*1303 FILLER_0_23_171
*1304 FILLER_0_23_2
*1305 FILLER_0_23_202
*1306 FILLER_0_23_206
*1307 FILLER_0_23_212
*1308 FILLER_0_23_220
*1309 FILLER_0_23_223
*1310 FILLER_0_23_227
*1311 FILLER_0_23_230
*1312 FILLER_0_23_232
*1313 FILLER_0_23_24
*1314 FILLER_0_23_241
*1315 FILLER_0_23_243
*1316 FILLER_0_23_248
*1317 FILLER_0_23_255
*1318 FILLER_0_23_259
*1319 FILLER_0_23_26
*1320 FILLER_0_23_267
*1321 FILLER_0_23_306
*1322 FILLER_0_23_315
*1323 FILLER_0_23_331
*1324 FILLER_0_23_333
*1325 FILLER_0_23_57
*1326 FILLER_0_23_65
*1327 FILLER_0_23_69
*1328 FILLER_0_23_72
*1329 FILLER_0_24_103
*1330 FILLER_0_24_107
*1331 FILLER_0_24_115
*1332 FILLER_0_24_142
*1333 FILLER_0_24_146
*1334 FILLER_0_24_153
*1335 FILLER_0_24_157
*1336 FILLER_0_24_165
*1337 FILLER_0_24_173
*1338 FILLER_0_24_18
*1339 FILLER_0_24_183
*1340 FILLER_0_24_191
*1341 FILLER_0_24_2
*1342 FILLER_0_24_221
*1343 FILLER_0_24_244
*1344 FILLER_0_24_254
*1345 FILLER_0_24_26
*1346 FILLER_0_24_270
*1347 FILLER_0_24_278
*1348 FILLER_0_24_28
*1349 FILLER_0_24_299
*1350 FILLER_0_24_313
*1351 FILLER_0_24_334
*1352 FILLER_0_24_342
*1353 FILLER_0_24_346
*1354 FILLER_0_24_37
*1355 FILLER_0_24_39
*1356 FILLER_0_24_50
*1357 FILLER_0_24_82
*1358 FILLER_0_24_99
*1359 FILLER_0_25_137
*1360 FILLER_0_25_139
*1361 FILLER_0_25_142
*1362 FILLER_0_25_151
*1363 FILLER_0_25_155
*1364 FILLER_0_25_157
*1365 FILLER_0_25_18
*1366 FILLER_0_25_2
*1367 FILLER_0_25_212
*1368 FILLER_0_25_220
*1369 FILLER_0_25_261
*1370 FILLER_0_25_277
*1371 FILLER_0_25_279
*1372 FILLER_0_25_282
*1373 FILLER_0_25_290
*1374 FILLER_0_25_292
*1375 FILLER_0_25_298
*1376 FILLER_0_25_306
*1377 FILLER_0_25_310
*1378 FILLER_0_25_317
*1379 FILLER_0_25_319
*1380 FILLER_0_25_326
*1381 FILLER_0_25_342
*1382 FILLER_0_25_346
*1383 FILLER_0_25_55
*1384 FILLER_0_25_63
*1385 FILLER_0_25_72
*1386 FILLER_0_25_74
*1387 FILLER_0_25_83
*1388 FILLER_0_25_91
*1389 FILLER_0_25_95
*1390 FILLER_0_26_100
*1391 FILLER_0_26_104
*1392 FILLER_0_26_107
*1393 FILLER_0_26_123
*1394 FILLER_0_26_131
*1395 FILLER_0_26_155
*1396 FILLER_0_26_159
*1397 FILLER_0_26_16
*1398 FILLER_0_26_161
*1399 FILLER_0_26_177
*1400 FILLER_0_26_181
*1401 FILLER_0_26_195
*1402 FILLER_0_26_197
*1403 FILLER_0_26_20
*1404 FILLER_0_26_208
*1405 FILLER_0_26_240
*1406 FILLER_0_26_244
*1407 FILLER_0_26_247
*1408 FILLER_0_26_251
*1409 FILLER_0_26_255
*1410 FILLER_0_26_27
*1411 FILLER_0_26_287
*1412 FILLER_0_26_303
*1413 FILLER_0_26_311
*1414 FILLER_0_26_317
*1415 FILLER_0_26_37
*1416 FILLER_0_26_41
*1417 FILLER_0_26_43
*1418 FILLER_0_26_49
*1419 FILLER_0_26_53
*1420 FILLER_0_26_55
*1421 FILLER_0_26_62
*1422 FILLER_0_26_92
*1423 FILLER_0_27_119
*1424 FILLER_0_27_135
*1425 FILLER_0_27_139
*1426 FILLER_0_27_142
*1427 FILLER_0_27_151
*1428 FILLER_0_27_167
*1429 FILLER_0_27_171
*1430 FILLER_0_27_180
*1431 FILLER_0_27_182
*1432 FILLER_0_27_189
*1433 FILLER_0_27_205
*1434 FILLER_0_27_209
*1435 FILLER_0_27_228
*1436 FILLER_0_27_260
*1437 FILLER_0_27_279
*1438 FILLER_0_27_290
*1439 FILLER_0_27_306
*1440 FILLER_0_27_314
*1441 FILLER_0_27_316
*1442 FILLER_0_27_37
*1443 FILLER_0_27_41
*1444 FILLER_0_27_60
*1445 FILLER_0_27_72
*1446 FILLER_0_27_87
*1447 FILLER_0_27_89
*1448 FILLER_0_28_100
*1449 FILLER_0_28_104
*1450 FILLER_0_28_136
*1451 FILLER_0_28_152
*1452 FILLER_0_28_154
*1453 FILLER_0_28_161
*1454 FILLER_0_28_169
*1455 FILLER_0_28_173
*1456 FILLER_0_28_177
*1457 FILLER_0_28_185
*1458 FILLER_0_28_193
*1459 FILLER_0_28_197
*1460 FILLER_0_28_213
*1461 FILLER_0_28_247
*1462 FILLER_0_28_251
*1463 FILLER_0_28_253
*1464 FILLER_0_28_296
*1465 FILLER_0_28_309
*1466 FILLER_0_28_31
*1467 FILLER_0_28_313
*1468 FILLER_0_28_317
*1469 FILLER_0_28_333
*1470 FILLER_0_28_341
*1471 FILLER_0_28_345
*1472 FILLER_0_28_347
*1473 FILLER_0_28_37
*1474 FILLER_0_28_69
*1475 FILLER_0_28_72
*1476 FILLER_0_28_74
*1477 FILLER_0_28_88
*1478 FILLER_0_28_92
*1479 FILLER_0_29_12
*1480 FILLER_0_29_136
*1481 FILLER_0_29_142
*1482 FILLER_0_29_162
*1483 FILLER_0_29_168
*1484 FILLER_0_29_172
*1485 FILLER_0_29_174
*1486 FILLER_0_29_177
*1487 FILLER_0_29_193
*1488 FILLER_0_29_20
*1489 FILLER_0_29_200
*1490 FILLER_0_29_209
*1491 FILLER_0_29_212
*1492 FILLER_0_29_230
*1493 FILLER_0_29_232
*1494 FILLER_0_29_262
*1495 FILLER_0_29_266
*1496 FILLER_0_29_27
*1497 FILLER_0_29_278
*1498 FILLER_0_29_292
*1499 FILLER_0_29_296
*1500 FILLER_0_29_323
*1501 FILLER_0_29_339
*1502 FILLER_0_29_59
*1503 FILLER_0_29_67
*1504 FILLER_0_29_69
*1505 FILLER_0_29_72
*1506 FILLER_0_29_8
*1507 FILLER_0_2_101
*1508 FILLER_0_2_107
*1509 FILLER_0_2_171
*1510 FILLER_0_2_183
*1511 FILLER_0_2_22
*1512 FILLER_0_2_226
*1513 FILLER_0_2_242
*1514 FILLER_0_2_244
*1515 FILLER_0_2_247
*1516 FILLER_0_2_30
*1517 FILLER_0_2_311
*1518 FILLER_0_2_317
*1519 FILLER_0_2_325
*1520 FILLER_0_2_335
*1521 FILLER_0_2_34
*1522 FILLER_0_2_343
*1523 FILLER_0_2_37
*1524 FILLER_0_2_6
*1525 FILLER_0_30_107
*1526 FILLER_0_30_123
*1527 FILLER_0_30_127
*1528 FILLER_0_30_156
*1529 FILLER_0_30_166
*1530 FILLER_0_30_2
*1531 FILLER_0_30_206
*1532 FILLER_0_30_210
*1533 FILLER_0_30_214
*1534 FILLER_0_30_240
*1535 FILLER_0_30_244
*1536 FILLER_0_30_258
*1537 FILLER_0_30_266
*1538 FILLER_0_30_287
*1539 FILLER_0_30_289
*1540 FILLER_0_30_314
*1541 FILLER_0_30_317
*1542 FILLER_0_30_338
*1543 FILLER_0_30_34
*1544 FILLER_0_30_37
*1545 FILLER_0_30_41
*1546 FILLER_0_30_48
*1547 FILLER_0_30_52
*1548 FILLER_0_30_68
*1549 FILLER_0_30_76
*1550 FILLER_0_30_80
*1551 FILLER_0_30_84
*1552 FILLER_0_30_88
*1553 FILLER_0_30_92
*1554 FILLER_0_31_132
*1555 FILLER_0_31_136
*1556 FILLER_0_31_142
*1557 FILLER_0_31_159
*1558 FILLER_0_31_163
*1559 FILLER_0_31_179
*1560 FILLER_0_31_18
*1561 FILLER_0_31_187
*1562 FILLER_0_31_194
*1563 FILLER_0_31_2
*1564 FILLER_0_31_212
*1565 FILLER_0_31_216
*1566 FILLER_0_31_224
*1567 FILLER_0_31_228
*1568 FILLER_0_31_242
*1569 FILLER_0_31_258
*1570 FILLER_0_31_26
*1571 FILLER_0_31_266
*1572 FILLER_0_31_270
*1573 FILLER_0_31_278
*1574 FILLER_0_31_289
*1575 FILLER_0_31_297
*1576 FILLER_0_31_301
*1577 FILLER_0_31_315
*1578 FILLER_0_31_347
*1579 FILLER_0_31_57
*1580 FILLER_0_31_65
*1581 FILLER_0_31_69
*1582 FILLER_0_31_80
*1583 FILLER_0_32_103
*1584 FILLER_0_32_130
*1585 FILLER_0_32_134
*1586 FILLER_0_32_168
*1587 FILLER_0_32_172
*1588 FILLER_0_32_174
*1589 FILLER_0_32_177
*1590 FILLER_0_32_185
*1591 FILLER_0_32_187
*1592 FILLER_0_32_190
*1593 FILLER_0_32_198
*1594 FILLER_0_32_2
*1595 FILLER_0_32_207
*1596 FILLER_0_32_240
*1597 FILLER_0_32_244
*1598 FILLER_0_32_247
*1599 FILLER_0_32_255
*1600 FILLER_0_32_259
*1601 FILLER_0_32_273
*1602 FILLER_0_32_289
*1603 FILLER_0_32_297
*1604 FILLER_0_32_301
*1605 FILLER_0_32_308
*1606 FILLER_0_32_312
*1607 FILLER_0_32_314
*1608 FILLER_0_32_317
*1609 FILLER_0_32_325
*1610 FILLER_0_32_327
*1611 FILLER_0_32_334
*1612 FILLER_0_32_34
*1613 FILLER_0_32_342
*1614 FILLER_0_32_346
*1615 FILLER_0_32_84
*1616 FILLER_0_33_112
*1617 FILLER_0_33_116
*1618 FILLER_0_33_119
*1619 FILLER_0_33_147
*1620 FILLER_0_33_188
*1621 FILLER_0_33_2
*1622 FILLER_0_33_206
*1623 FILLER_0_33_212
*1624 FILLER_0_33_220
*1625 FILLER_0_33_231
*1626 FILLER_0_33_247
*1627 FILLER_0_33_249
*1628 FILLER_0_33_255
*1629 FILLER_0_33_259
*1630 FILLER_0_33_266
*1631 FILLER_0_33_270
*1632 FILLER_0_33_275
*1633 FILLER_0_33_279