*SPEF "ieee 1481-1999"
*DESIGN "user_project_wrapper"
*DATE "11:11:11 Fri 11 11, 1111"
*VENDOR "OpenRCX"
*PROGRAM "Parallel Extraction"
*VERSION "1.0"
*DESIGN_FLOW "NAME_SCOPE LOCAL" "PIN_CAP NONE"
*DIVIDER /
*DELIMITER :
*BUS_DELIMITER []
*T_UNIT 1 NS
*C_UNIT 1 PF
*R_UNIT 1 OHM
*L_UNIT 1 HENRY

*NAME_MAP
*1 io_in[0]
*2 io_in[10]
*3 io_in[11]
*4 io_in[12]
*5 io_in[13]
*6 io_in[14]
*7 io_in[15]
*8 io_in[16]
*9 io_in[17]
*10 io_in[18]
*11 io_in[19]
*12 io_in[1]
*13 io_in[20]
*14 io_in[21]
*15 io_in[22]
*16 io_in[23]
*17 io_in[24]
*18 io_in[25]
*19 io_in[26]
*20 io_in[27]
*21 io_in[28]
*22 io_in[29]
*23 io_in[2]
*24 io_in[30]
*25 io_in[31]
*26 io_in[32]
*27 io_in[33]
*28 io_in[34]
*29 io_in[35]
*30 io_in[36]
*31 io_in[37]
*32 io_in[3]
*33 io_in[4]
*34 io_in[5]
*35 io_in[6]
*36 io_in[7]
*37 io_in[8]
*38 io_in[9]
*39 io_oeb[0]
*40 io_oeb[10]
*41 io_oeb[11]
*42 io_oeb[12]
*43 io_oeb[13]
*44 io_oeb[14]
*45 io_oeb[15]
*46 io_oeb[16]
*47 io_oeb[17]
*48 io_oeb[18]
*49 io_oeb[19]
*50 io_oeb[1]
*51 io_oeb[20]
*52 io_oeb[21]
*53 io_oeb[22]
*54 io_oeb[23]
*55 io_oeb[24]
*56 io_oeb[25]
*57 io_oeb[26]
*58 io_oeb[27]
*59 io_oeb[28]
*60 io_oeb[29]
*61 io_oeb[2]
*62 io_oeb[30]
*63 io_oeb[31]
*64 io_oeb[32]
*65 io_oeb[33]
*66 io_oeb[34]
*67 io_oeb[35]
*68 io_oeb[36]
*69 io_oeb[37]
*70 io_oeb[3]
*71 io_oeb[4]
*72 io_oeb[5]
*73 io_oeb[6]
*74 io_oeb[7]
*75 io_oeb[8]
*76 io_oeb[9]
*77 io_out[0]
*78 io_out[10]
*79 io_out[11]
*80 io_out[12]
*81 io_out[13]
*82 io_out[14]
*83 io_out[15]
*84 io_out[16]
*85 io_out[17]
*86 io_out[18]
*87 io_out[19]
*88 io_out[1]
*89 io_out[20]
*90 io_out[21]
*91 io_out[22]
*92 io_out[23]
*93 io_out[24]
*94 io_out[25]
*95 io_out[26]
*96 io_out[27]
*97 io_out[28]
*98 io_out[29]
*99 io_out[2]
*100 io_out[30]
*101 io_out[31]
*102 io_out[32]
*103 io_out[33]
*104 io_out[34]
*105 io_out[35]
*106 io_out[36]
*107 io_out[37]
*108 io_out[3]
*109 io_out[4]
*110 io_out[5]
*111 io_out[6]
*112 io_out[7]
*113 io_out[8]
*114 io_out[9]
*115 la_data_in[0]
*116 la_data_in[10]
*117 la_data_in[11]
*118 la_data_in[12]
*119 la_data_in[13]
*120 la_data_in[14]
*121 la_data_in[15]
*122 la_data_in[16]
*123 la_data_in[17]
*124 la_data_in[18]
*125 la_data_in[19]
*126 la_data_in[1]
*127 la_data_in[20]
*128 la_data_in[21]
*129 la_data_in[22]
*130 la_data_in[23]
*131 la_data_in[24]
*132 la_data_in[25]
*133 la_data_in[26]
*134 la_data_in[27]
*135 la_data_in[28]
*136 la_data_in[29]
*137 la_data_in[2]
*138 la_data_in[30]
*139 la_data_in[31]
*140 la_data_in[32]
*141 la_data_in[33]
*142 la_data_in[34]
*143 la_data_in[35]
*144 la_data_in[36]
*145 la_data_in[37]
*146 la_data_in[38]
*147 la_data_in[39]
*148 la_data_in[3]
*149 la_data_in[40]
*150 la_data_in[41]
*151 la_data_in[42]
*152 la_data_in[43]
*153 la_data_in[44]
*154 la_data_in[45]
*155 la_data_in[46]
*156 la_data_in[47]
*157 la_data_in[48]
*158 la_data_in[49]
*159 la_data_in[4]
*160 la_data_in[50]
*161 la_data_in[51]
*162 la_data_in[52]
*163 la_data_in[53]
*164 la_data_in[54]
*165 la_data_in[55]
*166 la_data_in[56]
*167 la_data_in[57]
*168 la_data_in[58]
*169 la_data_in[59]
*170 la_data_in[5]
*171 la_data_in[60]
*172 la_data_in[61]
*173 la_data_in[62]
*174 la_data_in[63]
*175 la_data_in[6]
*176 la_data_in[7]
*177 la_data_in[8]
*178 la_data_in[9]
*179 la_data_out[0]
*180 la_data_out[10]
*181 la_data_out[11]
*182 la_data_out[12]
*183 la_data_out[13]
*184 la_data_out[14]
*185 la_data_out[15]
*186 la_data_out[16]
*187 la_data_out[17]
*188 la_data_out[18]
*189 la_data_out[19]
*190 la_data_out[1]
*191 la_data_out[20]
*192 la_data_out[21]
*193 la_data_out[22]
*194 la_data_out[23]
*195 la_data_out[24]
*196 la_data_out[25]
*197 la_data_out[26]
*198 la_data_out[27]
*199 la_data_out[28]
*200 la_data_out[29]
*201 la_data_out[2]
*202 la_data_out[30]
*203 la_data_out[31]
*204 la_data_out[32]
*205 la_data_out[33]
*206 la_data_out[34]
*207 la_data_out[35]
*208 la_data_out[36]
*209 la_data_out[37]
*210 la_data_out[38]
*211 la_data_out[39]
*212 la_data_out[3]
*213 la_data_out[40]
*214 la_data_out[41]
*215 la_data_out[42]
*216 la_data_out[43]
*217 la_data_out[44]
*218 la_data_out[45]
*219 la_data_out[46]
*220 la_data_out[47]
*221 la_data_out[48]
*222 la_data_out[49]
*223 la_data_out[4]
*224 la_data_out[50]
*225 la_data_out[51]
*226 la_data_out[52]
*227 la_data_out[53]
*228 la_data_out[54]
*229 la_data_out[55]
*230 la_data_out[56]
*231 la_data_out[57]
*232 la_data_out[58]
*233 la_data_out[59]
*234 la_data_out[5]
*235 la_data_out[60]
*236 la_data_out[61]
*237 la_data_out[62]
*238 la_data_out[63]
*239 la_data_out[6]
*240 la_data_out[7]
*241 la_data_out[8]
*242 la_data_out[9]
*243 la_oenb[0]
*244 la_oenb[10]
*245 la_oenb[11]
*246 la_oenb[12]
*247 la_oenb[13]
*248 la_oenb[14]
*249 la_oenb[15]
*250 la_oenb[16]
*251 la_oenb[17]
*252 la_oenb[18]
*253 la_oenb[19]
*254 la_oenb[1]
*255 la_oenb[20]
*256 la_oenb[21]
*257 la_oenb[22]
*258 la_oenb[23]
*259 la_oenb[24]
*260 la_oenb[25]
*261 la_oenb[26]
*262 la_oenb[27]
*263 la_oenb[28]
*264 la_oenb[29]
*265 la_oenb[2]
*266 la_oenb[30]
*267 la_oenb[31]
*268 la_oenb[32]
*269 la_oenb[33]
*270 la_oenb[34]
*271 la_oenb[35]
*272 la_oenb[36]
*273 la_oenb[37]
*274 la_oenb[38]
*275 la_oenb[39]
*276 la_oenb[3]
*277 la_oenb[40]
*278 la_oenb[41]
*279 la_oenb[42]
*280 la_oenb[43]
*281 la_oenb[44]
*282 la_oenb[45]
*283 la_oenb[46]
*284 la_oenb[47]
*285 la_oenb[48]
*286 la_oenb[49]
*287 la_oenb[4]
*288 la_oenb[50]
*289 la_oenb[51]
*290 la_oenb[52]
*291 la_oenb[53]
*292 la_oenb[54]
*293 la_oenb[55]
*294 la_oenb[56]
*295 la_oenb[57]
*296 la_oenb[58]
*297 la_oenb[59]
*298 la_oenb[5]
*299 la_oenb[60]
*300 la_oenb[61]
*301 la_oenb[62]
*302 la_oenb[63]
*303 la_oenb[6]
*304 la_oenb[7]
*305 la_oenb[8]
*306 la_oenb[9]
*307 user_clock2
*308 user_irq[0]
*309 user_irq[1]
*310 user_irq[2]
*313 wb_clk_i
*314 wb_rst_i
*315 wbs_ack_o
*316 wbs_adr_i[0]
*317 wbs_adr_i[10]
*318 wbs_adr_i[11]
*319 wbs_adr_i[12]
*320 wbs_adr_i[13]
*321 wbs_adr_i[14]
*322 wbs_adr_i[15]
*323 wbs_adr_i[16]
*324 wbs_adr_i[17]
*325 wbs_adr_i[18]
*326 wbs_adr_i[19]
*327 wbs_adr_i[1]
*328 wbs_adr_i[20]
*329 wbs_adr_i[21]
*330 wbs_adr_i[22]
*331 wbs_adr_i[23]
*332 wbs_adr_i[24]
*333 wbs_adr_i[25]
*334 wbs_adr_i[26]
*335 wbs_adr_i[27]
*336 wbs_adr_i[28]
*337 wbs_adr_i[29]
*338 wbs_adr_i[2]
*339 wbs_adr_i[30]
*340 wbs_adr_i[31]
*341 wbs_adr_i[3]
*342 wbs_adr_i[4]
*343 wbs_adr_i[5]
*344 wbs_adr_i[6]
*345 wbs_adr_i[7]
*346 wbs_adr_i[8]
*347 wbs_adr_i[9]
*348 wbs_cyc_i
*349 wbs_dat_i[0]
*350 wbs_dat_i[10]
*351 wbs_dat_i[11]
*352 wbs_dat_i[12]
*353 wbs_dat_i[13]
*354 wbs_dat_i[14]
*355 wbs_dat_i[15]
*356 wbs_dat_i[16]
*357 wbs_dat_i[17]
*358 wbs_dat_i[18]
*359 wbs_dat_i[19]
*360 wbs_dat_i[1]
*361 wbs_dat_i[20]
*362 wbs_dat_i[21]
*363 wbs_dat_i[22]
*364 wbs_dat_i[23]
*365 wbs_dat_i[24]
*366 wbs_dat_i[25]
*367 wbs_dat_i[26]
*368 wbs_dat_i[27]
*369 wbs_dat_i[28]
*370 wbs_dat_i[29]
*371 wbs_dat_i[2]
*372 wbs_dat_i[30]
*373 wbs_dat_i[31]
*374 wbs_dat_i[3]
*375 wbs_dat_i[4]
*376 wbs_dat_i[5]
*377 wbs_dat_i[6]
*378 wbs_dat_i[7]
*379 wbs_dat_i[8]
*380 wbs_dat_i[9]
*381 wbs_dat_o[0]
*382 wbs_dat_o[10]
*383 wbs_dat_o[11]
*384 wbs_dat_o[12]
*385 wbs_dat_o[13]
*386 wbs_dat_o[14]
*387 wbs_dat_o[15]
*388 wbs_dat_o[16]
*389 wbs_dat_o[17]
*390 wbs_dat_o[18]
*391 wbs_dat_o[19]
*392 wbs_dat_o[1]
*393 wbs_dat_o[20]
*394 wbs_dat_o[21]
*395 wbs_dat_o[22]
*396 wbs_dat_o[23]
*397 wbs_dat_o[24]
*398 wbs_dat_o[25]
*399 wbs_dat_o[26]
*400 wbs_dat_o[27]
*401 wbs_dat_o[28]
*402 wbs_dat_o[29]
*403 wbs_dat_o[2]
*404 wbs_dat_o[30]
*405 wbs_dat_o[31]
*406 wbs_dat_o[3]
*407 wbs_dat_o[4]
*408 wbs_dat_o[5]
*409 wbs_dat_o[6]
*410 wbs_dat_o[7]
*411 wbs_dat_o[8]
*412 wbs_dat_o[9]
*413 wbs_sel_i[0]
*414 wbs_sel_i[1]
*415 wbs_sel_i[2]
*416 wbs_sel_i[3]
*417 wbs_stb_i
*418 wbs_we_i
*419 solo_squash_caravel_gf180

*PORTS
io_in[0] I
io_in[10] I
io_in[11] I
io_in[12] I
io_in[13] I
io_in[14] I
io_in[15] I
io_in[16] I
io_in[17] I
io_in[18] I
io_in[19] I
io_in[1] I
io_in[20] I
io_in[21] I
io_in[22] I
io_in[23] I
io_in[24] I
io_in[25] I
io_in[26] I
io_in[27] I
io_in[28] I
io_in[29] I
io_in[2] I
io_in[30] I
io_in[31] I
io_in[32] I
io_in[33] I
io_in[34] I
io_in[35] I
io_in[36] I
io_in[37] I
io_in[3] I
io_in[4] I
io_in[5] I
io_in[6] I
io_in[7] I
io_in[8] I
io_in[9] I
io_oeb[0] O
io_oeb[10] O
io_oeb[11] O
io_oeb[12] O
io_oeb[13] O
io_oeb[14] O
io_oeb[15] O
io_oeb[16] O
io_oeb[17] O
io_oeb[18] O
io_oeb[19] O
io_oeb[1] O
io_oeb[20] O
io_oeb[21] O
io_oeb[22] O
io_oeb[23] O
io_oeb[24] O
io_oeb[25] O
io_oeb[26] O
io_oeb[27] O
io_oeb[28] O
io_oeb[29] O
io_oeb[2] O
io_oeb[30] O
io_oeb[31] O
io_oeb[32] O
io_oeb[33] O
io_oeb[34] O
io_oeb[35] O
io_oeb[36] O
io_oeb[37] O
io_oeb[3] O
io_oeb[4] O
io_oeb[5] O
io_oeb[6] O
io_oeb[7] O
io_oeb[8] O
io_oeb[9] O
io_out[0] O
io_out[10] O
io_out[11] O
io_out[12] O
io_out[13] O
io_out[14] O
io_out[15] O
io_out[16] O
io_out[17] O
io_out[18] O
io_out[19] O
io_out[1] O
io_out[20] O
io_out[21] O
io_out[22] O
io_out[23] O
io_out[24] O
io_out[25] O
io_out[26] O
io_out[27] O
io_out[28] O
io_out[29] O
io_out[2] O
io_out[30] O
io_out[31] O
io_out[32] O
io_out[33] O
io_out[34] O
io_out[35] O
io_out[36] O
io_out[37] O
io_out[3] O
io_out[4] O
io_out[5] O
io_out[6] O
io_out[7] O
io_out[8] O
io_out[9] O
la_data_in[0] I
la_data_in[10] I
la_data_in[11] I
la_data_in[12] I
la_data_in[13] I
la_data_in[14] I
la_data_in[15] I
la_data_in[16] I
la_data_in[17] I
la_data_in[18] I
la_data_in[19] I
la_data_in[1] I
la_data_in[20] I
la_data_in[21] I
la_data_in[22] I
la_data_in[23] I
la_data_in[24] I
la_data_in[25] I
la_data_in[26] I
la_data_in[27] I
la_data_in[28] I
la_data_in[29] I
la_data_in[2] I
la_data_in[30] I
la_data_in[31] I
la_data_in[32] I
la_data_in[33] I
la_data_in[34] I
la_data_in[35] I
la_data_in[36] I
la_data_in[37] I
la_data_in[38] I
la_data_in[39] I
la_data_in[3] I
la_data_in[40] I
la_data_in[41] I
la_data_in[42] I
la_data_in[43] I
la_data_in[44] I
la_data_in[45] I
la_data_in[46] I
la_data_in[47] I
la_data_in[48] I
la_data_in[49] I
la_data_in[4] I
la_data_in[50] I
la_data_in[51] I
la_data_in[52] I
la_data_in[53] I
la_data_in[54] I
la_data_in[55] I
la_data_in[56] I
la_data_in[57] I
la_data_in[58] I
la_data_in[59] I
la_data_in[5] I
la_data_in[60] I
la_data_in[61] I
la_data_in[62] I
la_data_in[63] I
la_data_in[6] I
la_data_in[7] I
la_data_in[8] I
la_data_in[9] I
la_data_out[0] O
la_data_out[10] O
la_data_out[11] O
la_data_out[12] O
la_data_out[13] O
la_data_out[14] O
la_data_out[15] O
la_data_out[16] O
la_data_out[17] O
la_data_out[18] O
la_data_out[19] O
la_data_out[1] O
la_data_out[20] O
la_data_out[21] O
la_data_out[22] O
la_data_out[23] O
la_data_out[24] O
la_data_out[25] O
la_data_out[26] O
la_data_out[27] O
la_data_out[28] O
la_data_out[29] O
la_data_out[2] O
la_data_out[30] O
la_data_out[31] O
la_data_out[32] O
la_data_out[33] O
la_data_out[34] O
la_data_out[35] O
la_data_out[36] O
la_data_out[37] O
la_data_out[38] O
la_data_out[39] O
la_data_out[3] O
la_data_out[40] O
la_data_out[41] O
la_data_out[42] O
la_data_out[43] O
la_data_out[44] O
la_data_out[45] O
la_data_out[46] O
la_data_out[47] O
la_data_out[48] O
la_data_out[49] O
la_data_out[4] O
la_data_out[50] O
la_data_out[51] O
la_data_out[52] O
la_data_out[53] O
la_data_out[54] O
la_data_out[55] O
la_data_out[56] O
la_data_out[57] O
la_data_out[58] O
la_data_out[59] O
la_data_out[5] O
la_data_out[60] O
la_data_out[61] O
la_data_out[62] O
la_data_out[63] O
la_data_out[6] O
la_data_out[7] O
la_data_out[8] O
la_data_out[9] O
la_oenb[0] I
la_oenb[10] I
la_oenb[11] I
la_oenb[12] I
la_oenb[13] I
la_oenb[14] I
la_oenb[15] I
la_oenb[16] I
la_oenb[17] I
la_oenb[18] I
la_oenb[19] I
la_oenb[1] I
la_oenb[20] I
la_oenb[21] I
la_oenb[22] I
la_oenb[23] I
la_oenb[24] I
la_oenb[25] I
la_oenb[26] I
la_oenb[27] I
la_oenb[28] I
la_oenb[29] I
la_oenb[2] I
la_oenb[30] I
la_oenb[31] I
la_oenb[32] I
la_oenb[33] I
la_oenb[34] I
la_oenb[35] I
la_oenb[36] I
la_oenb[37] I
la_oenb[38] I
la_oenb[39] I
la_oenb[3] I
la_oenb[40] I
la_oenb[41] I
la_oenb[42] I
la_oenb[43] I
la_oenb[44] I
la_oenb[45] I
la_oenb[46] I
la_oenb[47] I
la_oenb[48] I
la_oenb[49] I
la_oenb[4] I
la_oenb[50] I
la_oenb[51] I
la_oenb[52] I
la_oenb[53] I
la_oenb[54] I
la_oenb[55] I
la_oenb[56] I
la_oenb[57] I
la_oenb[58] I
la_oenb[59] I
la_oenb[5] I
la_oenb[60] I
la_oenb[61] I
la_oenb[62] I
la_oenb[63] I
la_oenb[6] I
la_oenb[7] I
la_oenb[8] I
la_oenb[9] I
user_clock2 I
user_irq[0] O
user_irq[1] O
user_irq[2] O
wb_clk_i I
wb_rst_i I
wbs_ack_o O
wbs_adr_i[0] I
wbs_adr_i[10] I
wbs_adr_i[11] I
wbs_adr_i[12] I
wbs_adr_i[13] I
wbs_adr_i[14] I
wbs_adr_i[15] I
wbs_adr_i[16] I
wbs_adr_i[17] I
wbs_adr_i[18] I
wbs_adr_i[19] I
wbs_adr_i[1] I
wbs_adr_i[20] I
wbs_adr_i[21] I
wbs_adr_i[22] I
wbs_adr_i[23] I
wbs_adr_i[24] I
wbs_adr_i[25] I
wbs_adr_i[26] I
wbs_adr_i[27] I
wbs_adr_i[28] I
wbs_adr_i[29] I
wbs_adr_i[2] I
wbs_adr_i[30] I
wbs_adr_i[31] I
wbs_adr_i[3] I
wbs_adr_i[4] I
wbs_adr_i[5] I
wbs_adr_i[6] I
wbs_adr_i[7] I
wbs_adr_i[8] I
wbs_adr_i[9] I
wbs_cyc_i I
wbs_dat_i[0] I
wbs_dat_i[10] I
wbs_dat_i[11] I
wbs_dat_i[12] I
wbs_dat_i[13] I
wbs_dat_i[14] I
wbs_dat_i[15] I
wbs_dat_i[16] I
wbs_dat_i[17] I
wbs_dat_i[18] I
wbs_dat_i[19] I
wbs_dat_i[1] I
wbs_dat_i[20] I
wbs_dat_i[21] I
wbs_dat_i[22] I
wbs_dat_i[23] I
wbs_dat_i[24] I
wbs_dat_i[25] I
wbs_dat_i[26] I
wbs_dat_i[27] I
wbs_dat_i[28] I
wbs_dat_i[29] I
wbs_dat_i[2] I
wbs_dat_i[30] I
wbs_dat_i[31] I
wbs_dat_i[3] I
wbs_dat_i[4] I
wbs_dat_i[5] I
wbs_dat_i[6] I
wbs_dat_i[7] I
wbs_dat_i[8] I
wbs_dat_i[9] I
wbs_dat_o[0] O
wbs_dat_o[10] O
wbs_dat_o[11] O
wbs_dat_o[12] O
wbs_dat_o[13] O
wbs_dat_o[14] O
wbs_dat_o[15] O
wbs_dat_o[16] O
wbs_dat_o[17] O
wbs_dat_o[18] O
wbs_dat_o[19] O
wbs_dat_o[1] O
wbs_dat_o[20] O
wbs_dat_o[21] O
wbs_dat_o[22] O
wbs_dat_o[23] O
wbs_dat_o[24] O
wbs_dat_o[25] O
wbs_dat_o[26] O
wbs_dat_o[27] O
wbs_dat_o[28] O
wbs_dat_o[29] O
wbs_dat_o[2] O
wbs_dat_o[30] O
wbs_dat_o[31] O
wbs_dat_o[3] O
wbs_dat_o[4] O
wbs_dat_o[5] O
wbs_dat_o[6] O
wbs_dat_o[7] O
wbs_dat_o[8] O
wbs_dat_o[9] O
wbs_sel_i[0] I
wbs_sel_i[1] I
wbs_sel_i[2] I
wbs_sel_i[3] I
wbs_stb_i I
wbs_we_i I

*D_NET *2 0.273376
*CONN
*P io_in[10] I
*I *419:new_game_n I *D solo_squash_caravel_gf180
*CAP
1 io_in[10] 0.0753379
2 *419:new_game_n 0.000585203
3 *2:9 0.0142213
4 *2:7 0.0136361
5 *2:5 0.0753379
6 *419:new_game_n *86:7 0.000120111
7 *2:9 *40:9 0.0941379
*RES
1 io_in[10] *2:5 657.748 
2 *2:5 *2:7 4.5 
3 *2:7 *2:9 235.352 
4 *2:9 *419:new_game_n 9.336 
*END

*D_NET *3 0.221886
*CONN
*P io_in[11] I
*I *419:down_key_n I *D solo_squash_caravel_gf180
*CAP
1 io_in[11] 0.00150432
2 *419:down_key_n 0.000111352
3 *3:17 0.0354522
4 *3:15 0.0353409
5 *3:13 0.0738219
6 *3:11 0.0753263
7 *419:down_key_n *419:up_key_n 3.3606e-05
8 *3:11 *42:9 0.000295928
*RES
1 io_in[11] *3:11 21.428 
2 *3:11 *3:13 645.944 
3 *3:13 *3:15 4.5 
4 *3:15 *3:17 313.56 
5 *3:17 *419:down_key_n 5.592 
*END

*D_NET *4 0.432484
*CONN
*P io_in[12] I
*I *419:up_key_n I *D solo_squash_caravel_gf180
*CAP
1 io_in[12] 0.0751943
2 *419:up_key_n 0.00050263
3 *4:9 0.00848268
4 *4:7 0.00798005
5 *4:5 0.0751943
6 *4:9 *40:9 0.117838
7 *4:9 *41:9 0.147259
8 *419:down_key_n *419:up_key_n 3.3606e-05
*RES
1 io_in[12] *4:5 657.332 
2 *4:5 *4:7 4.5 
3 *4:7 *4:9 392.6 
4 *4:9 *419:up_key_n 8.92 
*END

*D_NET *37 0.170647
*CONN
*P io_in[8] I
*I *419:ext_reset_n I *D solo_squash_caravel_gf180
*CAP
1 io_in[8] 0.0010551
2 *419:ext_reset_n 0.0649015
3 *37:11 0.0649015
4 *37:9 0.00496631
5 *37:7 0.00602142
6 *419:ext_reset_n *419:wb_rst_i 6.44328e-05
7 *37:9 *74:9 0.0244131
8 *37:9 *76:9 0.00432403
*RES
1 io_in[8] *37:7 12.872 
2 *37:7 *37:9 85.592 
3 *37:9 *37:11 4.5 
4 *37:11 *419:ext_reset_n 567.268 
*END

*D_NET *38 0.298346
*CONN
*P io_in[9] I
*I *419:pause_n I *D solo_squash_caravel_gf180
*CAP
1 io_in[9] 0.00152772
2 *419:pause_n 0.000360807
3 *38:13 0.0518911
4 *38:11 0.0515303
5 *38:9 0.025164
6 *38:7 0.0266917
7 *419:pause_n *85:7 8.89575e-05
8 *38:9 *43:9 0.000245167
9 *38:9 *44:9 0.0150055
10 *38:13 *75:9 0.125841
*RES
1 io_in[9] *38:7 14.12 
2 *38:7 *38:9 211.224 
3 *38:9 *38:11 4.5 
4 *38:11 *38:13 606.008 
5 *38:13 *419:pause_n 7.88 
*END

*D_NET *39 0.343635
*CONN
*P io_oeb[0] O
*I *419:io_oeb[0] O *D solo_squash_caravel_gf180
*CAP
1 io_oeb[0] 0.0648732
2 *419:io_oeb[0] 0.0007046
3 *39:11 0.0648732
4 *39:9 0.0272615
5 *39:7 0.0279661
6 *39:7 *62:15 8.12754e-05
7 *39:9 *59:9 0.00227395
8 *39:9 *61:9 0.130901
9 *39:9 *65:9 0.0102624
10 *39:9 *66:9 0.0024432
11 *39:9 *68:9 0
12 *39:9 *69:9 0
13 *39:9 *82:9 0.0119949
*RES
1 *419:io_oeb[0] *39:7 9.128 
2 *39:7 *39:9 474.344 
3 *39:9 *39:11 4.5 
4 *39:11 io_oeb[0] 571.012 
*END

*D_NET *40 0.379418
*CONN
*P io_oeb[10] O
*I *419:io_oeb[10] O *D solo_squash_caravel_gf180
*CAP
1 io_oeb[10] 0.0752938
2 *419:io_oeb[10] 0.000490005
3 *40:11 0.0752938
4 *40:9 0.00567905
5 *40:7 0.00616905
6 *40:7 *72:7 0.000127766
7 *40:9 *41:9 0.0043893
8 *2:9 *40:9 0.0941379
9 *4:9 *40:9 0.117838
*RES
1 *419:io_oeb[10] *40:7 9.128 
2 *40:7 *40:9 319.592 
3 *40:9 *40:11 4.5 
4 *40:11 io_oeb[10] 657.54 
*END

*D_NET *41 0.380246
*CONN
*P io_oeb[11] O
*I *419:io_oeb[11] O *D solo_squash_caravel_gf180
*CAP
1 io_oeb[11] 0.0751594
2 *419:io_oeb[11] 0.000416086
3 *41:11 0.0751594
4 *41:9 0.0232925
5 *41:7 0.0237085
6 *41:7 *67:7 0.000126086
7 *41:9 *72:9 0.00145937
8 *41:9 *86:9 0.0292769
9 *4:9 *41:9 0.147259
10 *40:9 *41:9 0.0043893
*RES
1 *419:io_oeb[11] *41:7 8.712 
2 *41:7 *41:9 398.008 
3 *41:9 *41:11 4.5 
4 *41:11 io_oeb[11] 657.124 
*END

*D_NET *42 0.427725
*CONN
*P io_oeb[12] O
*I *419:io_oeb[12] O *D solo_squash_caravel_gf180
*CAP
1 io_oeb[12] 0.00112292
2 *419:io_oeb[12] 0.0822871
3 *42:9 0.0142402
4 *42:7 0.0131172
5 *42:5 0.0822871
6 *42:5 *53:11 6.26543e-05
7 *42:5 *61:7 5.76556e-05
8 *42:9 *76:9 0.0728965
9 *42:9 *81:9 0.161358
10 *3:11 *42:9 0.000295928
*RES
1 *419:io_oeb[12] *42:5 566.644 
2 *42:5 *42:7 4.5 
3 *42:7 *42:9 403 
4 *42:9 io_oeb[12] 13.496 
*END

*D_NET *43 0.544789
*CONN
*P io_oeb[13] O
*I *419:io_oeb[13] O *D solo_squash_caravel_gf180
*CAP
1 io_oeb[13] 0.00116814
2 *419:io_oeb[13] 0.0561926
3 *43:9 0.0043199
4 *43:7 0.00315176
5 *43:5 0.0561926
6 *43:5 *48:5 0.00309486
7 *43:5 *83:5 0.0152101
8 *43:9 *44:9 0.207839
9 *43:9 *76:9 0.000917701
10 *43:9 *81:9 0.196457
11 *38:9 *43:9 0.000245167
*RES
1 *419:io_oeb[13] *43:5 566.228 
2 *43:5 *43:7 4.5 
3 *43:7 *43:9 522.808 
4 *43:9 io_oeb[13] 13.912 
*END

*D_NET *44 0.432654
*CONN
*P io_oeb[14] O
*I *419:io_oeb[14] O *D solo_squash_caravel_gf180
*CAP
1 io_oeb[14] 0.00119074
2 *419:io_oeb[14] 0.0534314
3 *44:9 0.0393031
4 *44:7 0.0381124
5 *44:5 0.0534314
6 *44:5 *45:5 0.0140024
7 *44:5 *46:5 0.0103384
8 *38:9 *44:9 0.0150055
9 *43:9 *44:9 0.207839
*RES
1 *419:io_oeb[14] *44:5 566.02 
2 *44:5 *44:7 4.5 
3 *44:7 *44:9 592.696 
4 *44:9 io_oeb[14] 14.12 
*END

*D_NET *45 0.253132
*CONN
*P io_oeb[15] O
*I *419:io_oeb[15] O *D solo_squash_caravel_gf180
*CAP
1 io_oeb[15] 0.0716771
2 *419:io_oeb[15] 0.0445254
3 *45:7 0.0716771
4 *45:5 0.0445254
5 *45:5 *47:5 0.00672453
6 *44:5 *45:5 0.0140024
*RES
1 *419:io_oeb[15] *45:5 473.252 
2 *45:5 *45:7 4.5 
3 *45:7 io_oeb[15] 604.5 
*END

*D_NET *46 0.22541
*CONN
*P io_oeb[16] O
*I *419:io_oeb[16] O *D solo_squash_caravel_gf180
*CAP
1 io_oeb[16] 0.0720292
2 *419:io_oeb[16] 0.0339607
3 *46:7 0.0720292
4 *46:5 0.0339607
5 *46:5 *48:5 0.00309184
6 *44:5 *46:5 0.0103384
*RES
1 *419:io_oeb[16] *46:5 350.324 
2 *46:5 *46:7 4.5 
3 *46:7 io_oeb[16] 606.996 
*END

*D_NET *47 0.196302
*CONN
*P io_oeb[17] O
*I *419:io_oeb[17] O *D solo_squash_caravel_gf180
*CAP
1 io_oeb[17] 0.0715521
2 *419:io_oeb[17] 0.019876
3 *47:7 0.0715521
4 *47:5 0.019876
5 *47:5 *81:5 0.0067215
6 *45:5 *47:5 0.00672453
*RES
1 *419:io_oeb[17] *47:5 227.604 
2 *47:5 *47:7 4.5 
3 *47:7 io_oeb[17] 603.252 
*END

*D_NET *48 0.168843
*CONN
*P io_oeb[18] O
*I *419:io_oeb[18] O *D solo_squash_caravel_gf180
*CAP
1 io_oeb[18] 0.0722358
2 *419:io_oeb[18] 0.00909219
3 *48:7 0.0722358
4 *48:5 0.00909219
5 *43:5 *48:5 0.00309486
6 *46:5 *48:5 0.00309184
*RES
1 *419:io_oeb[18] *48:5 104.468 
2 *48:5 *48:7 4.5 
3 *48:7 io_oeb[18] 608.244 
*END

*D_NET *49 0.172908
*CONN
*P io_oeb[19] O
*I *419:io_oeb[19] O *D solo_squash_caravel_gf180
*CAP
1 io_oeb[19] 0.0657335
2 *419:io_oeb[19] 0.000294401
3 *49:21 0.0669379
4 *49:11 0.00650193
5 *49:9 0.00559199
6 *49:9 *87:7 1.71907e-05
7 *49:11 *52:9 0.0221131
8 *49:21 *53:13 0.00468846
9 *49:21 *70:9 0.00020889
10 *49:21 *89:15 0.000820502
*RES
1 *419:io_oeb[19] *49:9 5.696 
2 *49:9 *49:11 60.632 
3 *49:11 *49:21 28.24 
4 *49:21 io_oeb[19] 554.164 
*END

*D_NET *50 0.213884
*CONN
*P io_oeb[1] O
*I *419:io_oeb[1] O *D solo_squash_caravel_gf180
*CAP
1 io_oeb[1] 0.0675034
2 *419:io_oeb[1] 0.0394388
3 *50:7 0.0675034
4 *50:5 0.0394388
*RES
1 *419:io_oeb[1] *50:5 332.228 
2 *50:5 *50:7 4.5 
3 *50:7 io_oeb[1] 591.812 
*END

*D_NET *51 0.165027
*CONN
*P io_oeb[20] O
*I *419:io_oeb[20] O *D solo_squash_caravel_gf180
*CAP
1 io_oeb[20] 0.066133
2 *419:io_oeb[20] 0.000228683
3 *51:17 0.066133
4 *51:15 0.0161243
5 *51:13 0.016353
6 *51:13 *54:9 5.51177e-05
*RES
1 *419:io_oeb[20] *51:13 11.132 
2 *51:13 *51:15 140.088 
3 *51:15 *51:17 4.5 
4 *51:17 io_oeb[20] 558.116 
*END

*D_NET *52 0.337458
*CONN
*P io_oeb[21] O
*I *419:io_oeb[21] O *D solo_squash_caravel_gf180
*CAP
1 io_oeb[21] 0.0657044
2 *419:io_oeb[21] 0.000115482
3 *52:15 0.0657044
4 *52:13 0.0117471
5 *52:11 0.0117471
6 *52:9 0.0016441
7 *52:7 0.00175959
8 *52:9 *54:9 0.024947
9 *52:13 *53:13 0.0267695
10 *52:13 *54:13 0.105207
11 *49:11 *52:9 0.0221131
*RES
1 *419:io_oeb[21] *52:7 4.968 
2 *52:7 *52:9 68.12 
3 *52:9 *52:11 4.5 
4 *52:11 *52:13 264.472 
5 *52:13 *52:15 4.5 
6 *52:15 io_oeb[21] 554.788 
*END

*D_NET *53 0.258423
*CONN
*P io_oeb[22] O
*I *419:io_oeb[22] O *D solo_squash_caravel_gf180
*CAP
1 io_oeb[22] 0.00113656
2 *419:io_oeb[22] 0.00110543
3 *53:21 0.0355459
4 *53:19 0.0344094
5 *53:17 0.0646677
6 *53:15 0.0646677
7 *53:13 0.00335283
8 *53:11 0.00445826
9 *53:11 *65:7 6.39143e-05
10 *53:11 *89:9 0.00385851
11 *53:13 *89:15 0.000418499
12 *53:21 *89:21 0.0132177
13 *42:5 *53:11 6.26543e-05
14 *49:21 *53:13 0.00468846
15 *52:13 *53:13 0.0267695
*RES
1 *419:io_oeb[22] *53:11 22.052 
2 *53:11 *53:13 70.408 
3 *53:13 *53:15 4.5 
4 *53:15 *53:17 545.064 
5 *53:17 *53:19 4.5 
6 *53:19 *53:21 319.592 
7 *53:21 io_oeb[22] 14.12 
*END

*D_NET *54 0.362999
*CONN
*P io_oeb[23] O
*I *419:io_oeb[23] O *D solo_squash_caravel_gf180
*CAP
1 io_oeb[23] 0.0657082
2 *419:io_oeb[23] 0.000192281
3 *54:15 0.0657082
4 *54:13 0.0433659
5 *54:11 0.0433659
6 *54:9 0.00712902
7 *54:7 0.0073213
8 *51:13 *54:9 5.51177e-05
9 *52:9 *54:9 0.024947
10 *52:13 *54:13 0.105207
*RES
1 *419:io_oeb[23] *54:7 5.384 
2 *54:7 *54:9 77.48 
3 *54:9 *54:11 4.5 
4 *54:11 *54:13 510.12 
5 *54:13 *54:15 4.5 
6 *54:15 io_oeb[23] 554.996 
*END

*D_NET *55 0.387232
*CONN
*P io_oeb[24] O
*I *419:io_oeb[24] O *D solo_squash_caravel_gf180
*CAP
1 io_oeb[24] 0.000790543
2 *419:io_oeb[24] 0.000630315
3 *55:13 0.0577876
4 *55:11 0.0569971
5 *55:9 0.0274721
6 *55:7 0.0281024
7 *55:9 *59:13 0.180928
8 *55:13 *56:9 0.0345235
*RES
1 *419:io_oeb[24] *55:7 9.336 
2 *55:7 *55:9 460.616 
3 *55:9 *55:11 4.5 
4 *55:11 *55:13 481 
5 *55:13 io_oeb[24] 11.624 
*END

*D_NET *56 0.334625
*CONN
*P io_oeb[25] O
*I *419:io_oeb[25] O *D solo_squash_caravel_gf180
*CAP
1 io_oeb[25] 0.000799869
2 *419:io_oeb[25] 0.0448461
3 *56:9 0.0294813
4 *56:7 0.0286814
5 *56:5 0.0448461
6 *56:5 *64:5 0.0131715
7 *56:9 *57:9 0.138276
8 *55:13 *56:9 0.0345235
*RES
1 *419:io_oeb[25] *56:5 445.588 
2 *56:5 *56:7 4.5 
3 *56:7 *56:9 424.008 
4 *56:9 io_oeb[25] 11.624 
*END

*D_NET *57 0.341664
*CONN
*P io_oeb[26] O
*I *419:io_oeb[26] O *D solo_squash_caravel_gf180
*CAP
1 io_oeb[26] 0.000847094
2 *419:io_oeb[26] 0.0507304
3 *57:9 0.0184141
4 *57:7 0.017567
5 *57:5 0.0507304
6 *57:5 *67:7 9.44497e-05
7 *57:5 *72:7 0.000127766
8 *57:9 *60:9 0.0408339
9 *57:9 *64:9 0.0240431
10 *56:9 *57:9 0.138276
*RES
1 *419:io_oeb[26] *57:5 445.38 
2 *57:5 *57:7 4.5 
3 *57:7 *57:9 404.04 
4 *57:9 io_oeb[26] 11.832 
*END

*D_NET *58 0.20595
*CONN
*P io_oeb[27] O
*I *419:io_oeb[27] O *D solo_squash_caravel_gf180
*CAP
1 io_oeb[27] 0.0535841
2 *419:io_oeb[27] 0.00174939
3 *58:19 0.0535841
4 *58:17 0.0273398
5 *58:15 0.0273398
6 *58:13 0.00389193
7 *58:11 0.00564132
8 *58:11 *59:9 0.000973422
9 *58:11 *62:15 6.6117e-05
10 *58:11 *63:11 0.00243604
11 *58:11 *65:7 6.43328e-05
12 *58:11 *66:9 0.00345989
13 *58:11 *82:9 2.38438e-06
14 *58:11 *89:9 0.000277534
15 *58:13 *59:13 0.0255398
*RES
1 *419:io_oeb[27] *58:11 30.164 
2 *58:11 *58:13 64.376 
3 *58:13 *58:15 4.5 
4 *58:15 *58:17 245.128 
5 *58:17 *58:19 4.5 
6 *58:19 io_oeb[27] 468.884 
*END

*D_NET *59 0.350983
*CONN
*P io_oeb[28] O
*I *419:io_oeb[28] O *D solo_squash_caravel_gf180
*CAP
1 io_oeb[28] 0.00165325
2 *419:io_oeb[28] 0.000552882
3 *59:17 0.0203111
4 *59:15 0.0186579
5 *59:13 0.0306939
6 *59:11 0.0306939
7 *59:9 0.00172871
8 *59:7 0.00228159
9 *59:7 *419:gpio_ready 6.75492e-05
10 *59:7 *68:7 6.88092e-05
11 *59:9 *62:15 0.00439947
12 *59:9 *65:9 0.0243883
13 *59:9 *66:9 0.00123855
14 *59:9 *82:9 0.00453119
15 *39:9 *59:9 0.00227395
16 *55:9 *59:13 0.180928
17 *58:11 *59:9 0.000973422
18 *58:13 *59:13 0.0255398
*RES
1 *419:io_oeb[28] *59:7 8.296 
2 *59:7 *59:9 77.688 
3 *59:9 *59:11 4.5 
4 *59:11 *59:13 520.52 
5 *59:13 *59:15 4.5 
6 *59:15 *59:17 166.712 
7 *59:17 io_oeb[28] 17.864 
*END

*D_NET *60 0.183402
*CONN
*P io_oeb[29] O
*I *419:io_oeb[29] O *D solo_squash_caravel_gf180
*CAP
1 io_oeb[29] 0.000891216
2 *419:io_oeb[29] 0.0644357
3 *60:9 0.00677533
4 *60:7 0.00588411
5 *60:5 0.0644357
6 *60:5 *419:wb_clk_i 0.000146135
7 *57:9 *60:9 0.0408339
*RES
1 *419:io_oeb[29] *60:5 445.172 
2 *60:5 *60:7 4.5 
3 *60:7 *60:9 102.024 
4 *60:9 io_oeb[29] 12.04 
*END

*D_NET *61 0.302606
*CONN
*P io_oeb[2] O
*I *419:io_oeb[2] O *D solo_squash_caravel_gf180
*CAP
1 io_oeb[2] 0.0648506
2 *419:io_oeb[2] 0.000795558
3 *61:11 0.0648506
4 *61:9 0.0195204
5 *61:7 0.020316
6 *61:7 *63:11 6.26543e-05
7 *61:9 *82:9 0.0012513
8 *39:9 *61:9 0.130901
9 *42:5 *61:7 5.76556e-05
*RES
1 *419:io_oeb[2] *61:7 9.336 
2 *61:7 *61:9 334.776 
3 *61:9 *61:11 4.5 
4 *61:11 io_oeb[2] 570.804 
*END

*D_NET *62 0.135868
*CONN
*P io_oeb[30] O
*I *419:io_oeb[30] O *D solo_squash_caravel_gf180
*CAP
1 io_oeb[30] 0.0605468
2 *419:io_oeb[30] 0.00151095
3 *62:19 0.0627499
4 *62:15 0.00371405
5 *62:15 *66:7 0.00015161
6 *62:15 *82:9 0.00188694
7 *62:19 *89:17 0.000761278
8 *39:7 *62:15 8.12754e-05
9 *58:11 *62:15 6.6117e-05
10 *59:9 *62:15 0.00439947
*RES
1 *419:io_oeb[30] *62:15 33.936 
2 *62:15 *62:19 21.868 
3 *62:19 io_oeb[30] 528.788 
*END

*D_NET *63 0.124684
*CONN
*P io_oeb[31] O
*I *419:io_oeb[31] O *D solo_squash_caravel_gf180
*CAP
1 io_oeb[31] 0.00164069
2 *419:io_oeb[31] 0.00108662
3 *63:17 0.00718482
4 *63:15 0.00554413
5 *63:13 0.0527228
6 *63:11 0.0538094
7 *63:11 *66:9 0.000196433
8 *58:11 *63:11 0.00243604
9 *61:7 *63:11 6.26543e-05
*RES
1 *419:io_oeb[31] *63:11 19.5151 
2 *63:11 *63:13 222.619 
3 *63:13 *63:15 4.5 
4 *63:15 *63:17 50.0649 
5 *63:17 io_oeb[31] 17.864 
*END

*D_NET *64 0.150834
*CONN
*P io_oeb[32] O
*I *419:io_oeb[32] O *D solo_squash_caravel_gf180
*CAP
1 io_oeb[32] 0.00107713
2 *419:io_oeb[32] 0.0447579
3 *64:9 0.0120516
4 *64:7 0.0109745
5 *64:5 0.0447579
6 *56:5 *64:5 0.0131715
7 *57:9 *64:9 0.0240431
*RES
1 *419:io_oeb[32] *64:5 445.172 
2 *64:5 *64:7 4.5 
3 *64:7 *64:9 127.4 
4 *64:9 io_oeb[32] 12.04 
*END

*D_NET *65 0.250658
*CONN
*P io_oeb[33] O
*I *419:io_oeb[33] O *D solo_squash_caravel_gf180
*CAP
1 io_oeb[33] 0.0609926
2 *419:io_oeb[33] 0.000539295
3 *65:11 0.0609926
4 *65:9 0.00443509
5 *65:7 0.00497439
6 *65:9 *66:9 0.0839451
7 *39:9 *65:9 0.0102624
8 *53:11 *65:7 6.39143e-05
9 *58:11 *65:7 6.43328e-05
10 *59:9 *65:9 0.0243883
*RES
1 *419:io_oeb[33] *65:7 8.088 
2 *65:7 *65:9 210.184 
3 *65:9 *65:11 4.5 
4 *65:11 io_oeb[33] 533.572 
*END

*D_NET *66 0.325818
*CONN
*P io_oeb[34] O
*I *419:io_oeb[34] O *D solo_squash_caravel_gf180
*CAP
1 io_oeb[34] 0.060927
2 *419:io_oeb[34] 0.000486604
3 *66:11 0.060927
4 *66:9 0.00821025
5 *66:7 0.00869685
6 *66:9 *68:9 0.091517
7 *66:9 *89:9 0.00212907
8 *66:9 *314:13 0.00148964
9 *39:9 *66:9 0.0024432
10 *58:11 *66:9 0.00345989
11 *59:9 *66:9 0.00123855
12 *62:15 *66:7 0.00015161
13 *63:11 *66:9 0.000196433
14 *65:9 *66:9 0.0839451
*RES
1 *419:io_oeb[34] *66:7 7.88 
2 *66:7 *66:9 296.296 
3 *66:9 *66:11 4.5 
4 *66:11 io_oeb[34] 533.364 
*END

*D_NET *67 0.184031
*CONN
*P io_oeb[35] O
*I *419:io_oeb[35] O *D solo_squash_caravel_gf180
*CAP
1 io_oeb[35] 0.0508499
2 *419:io_oeb[35] 0.000682387
3 *67:11 0.0508499
4 *67:9 0.0331673
5 *67:7 0.0338497
6 *67:9 *72:9 0.00142019
7 *67:9 *313:13 0.0129911
8 *41:7 *67:7 0.000126086
9 *57:5 *67:7 9.44497e-05
*RES
1 *419:io_oeb[35] *67:7 10.168 
2 *67:7 *67:9 302.536 
3 *67:9 *67:11 4.5 
4 *67:11 io_oeb[35] 447.044 
*END

*D_NET *68 0.403275
*CONN
*P io_oeb[36] O
*I *419:io_oeb[36] O *D solo_squash_caravel_gf180
*CAP
1 io_oeb[36] 0.0608456
2 *419:io_oeb[36] 0.000415165
3 *68:11 0.0608456
4 *68:9 0.0103386
5 *68:7 0.0107537
6 *68:7 *89:7 6.88092e-05
7 *68:9 *69:9 0.152118
8 *68:9 *115:13 0.0163037
9 *39:9 *68:9 0
10 *59:7 *68:7 6.88092e-05
11 *66:9 *68:9 0.091517
*RES
1 *419:io_oeb[36] *68:7 7.672 
2 *68:7 *68:9 386.152 
3 *68:9 *68:11 4.5 
4 *68:11 io_oeb[36] 533.156 
*END

*D_NET *69 0.377842
*CONN
*P io_oeb[37] O
*I *419:io_oeb[37] O *D solo_squash_caravel_gf180
*CAP
1 io_oeb[37] 0.0607889
2 *419:io_oeb[37] 0.000414267
3 *69:11 0.0607889
4 *69:9 0.0307371
5 *69:7 0.0311514
6 *69:7 *74:5 6.51743e-05
7 *69:9 *115:13 0.00272402
8 *69:9 *314:13 0.0390538
9 *39:9 *69:9 0
10 *68:9 *69:9 0.152118
*RES
1 *419:io_oeb[37] *69:7 7.464 
2 *69:7 *69:9 458.536 
3 *69:9 *69:11 4.5 
4 *69:11 io_oeb[37] 532.948 
*END

*D_NET *70 0.194701
*CONN
*P io_oeb[3] O
*I *419:io_oeb[3] O *D solo_squash_caravel_gf180
*CAP
1 io_oeb[3] 0.0668454
2 *419:io_oeb[3] 0.000181291
3 *70:13 0.0668454
4 *70:11 0.0302193
5 *70:9 0.0304006
6 *49:21 *70:9 0.00020889
*RES
1 *419:io_oeb[3] *70:9 10.508 
2 *70:9 *70:11 268.84 
3 *70:11 *70:13 4.5 
4 *70:13 io_oeb[3] 585.364 
*END

*D_NET *71 0.178244
*CONN
*P io_oeb[4] O
*I *419:io_oeb[4] O *D solo_squash_caravel_gf180
*CAP