*SPEF "ieee 1481-1999"
*DESIGN "user_project_wrapper"
*DATE "11:11:11 Fri 11 11, 1111"
*VENDOR "OpenRCX"
*PROGRAM "Parallel Extraction"
*VERSION "1.0"
*DESIGN_FLOW "NAME_SCOPE LOCAL" "PIN_CAP NONE"
*DIVIDER /
*DELIMITER :
*BUS_DELIMITER []
*T_UNIT 1 NS
*C_UNIT 1 PF
*R_UNIT 1 OHM
*L_UNIT 1 HENRY

*NAME_MAP
*1 io_in[0]
*2 io_in[10]
*3 io_in[11]
*4 io_in[12]
*5 io_in[13]
*6 io_in[14]
*7 io_in[15]
*8 io_in[16]
*9 io_in[17]
*10 io_in[18]
*11 io_in[19]
*12 io_in[1]
*13 io_in[20]
*14 io_in[21]
*15 io_in[22]
*16 io_in[23]
*17 io_in[24]
*18 io_in[25]
*19 io_in[26]
*20 io_in[27]
*21 io_in[28]
*22 io_in[29]
*23 io_in[2]
*24 io_in[30]
*25 io_in[31]
*26 io_in[32]
*27 io_in[33]
*28 io_in[34]
*29 io_in[35]
*30 io_in[36]
*31 io_in[37]
*32 io_in[3]
*33 io_in[4]
*34 io_in[5]
*35 io_in[6]
*36 io_in[7]
*37 io_in[8]
*38 io_in[9]
*39 io_oeb[0]
*40 io_oeb[10]
*41 io_oeb[11]
*42 io_oeb[12]
*43 io_oeb[13]
*44 io_oeb[14]
*45 io_oeb[15]
*46 io_oeb[16]
*47 io_oeb[17]
*48 io_oeb[18]
*49 io_oeb[19]
*50 io_oeb[1]
*51 io_oeb[20]
*52 io_oeb[21]
*53 io_oeb[22]
*54 io_oeb[23]
*55 io_oeb[24]
*56 io_oeb[25]
*57 io_oeb[26]
*58 io_oeb[27]
*59 io_oeb[28]
*60 io_oeb[29]
*61 io_oeb[2]
*62 io_oeb[30]
*63 io_oeb[31]
*64 io_oeb[32]
*65 io_oeb[33]
*66 io_oeb[34]
*67 io_oeb[35]
*68 io_oeb[36]
*69 io_oeb[37]
*70 io_oeb[3]
*71 io_oeb[4]
*72 io_oeb[5]
*73 io_oeb[6]
*74 io_oeb[7]
*75 io_oeb[8]
*76 io_oeb[9]
*77 io_out[0]
*78 io_out[10]
*79 io_out[11]
*80 io_out[12]
*81 io_out[13]
*82 io_out[14]
*83 io_out[15]
*84 io_out[16]
*85 io_out[17]
*86 io_out[18]
*87 io_out[19]
*88 io_out[1]
*89 io_out[20]
*90 io_out[21]
*91 io_out[22]
*92 io_out[23]
*93 io_out[24]
*94 io_out[25]
*95 io_out[26]
*96 io_out[27]
*97 io_out[28]
*98 io_out[29]
*99 io_out[2]
*100 io_out[30]
*101 io_out[31]
*102 io_out[32]
*103 io_out[33]
*104 io_out[34]
*105 io_out[35]
*106 io_out[36]
*107 io_out[37]
*108 io_out[3]
*109 io_out[4]
*110 io_out[5]
*111 io_out[6]
*112 io_out[7]
*113 io_out[8]
*114 io_out[9]
*115 la_data_in[0]
*116 la_data_in[10]
*117 la_data_in[11]
*118 la_data_in[12]
*119 la_data_in[13]
*120 la_data_in[14]
*121 la_data_in[15]
*122 la_data_in[16]
*123 la_data_in[17]
*124 la_data_in[18]
*125 la_data_in[19]
*126 la_data_in[1]
*127 la_data_in[20]
*128 la_data_in[21]
*129 la_data_in[22]
*130 la_data_in[23]
*131 la_data_in[24]
*132 la_data_in[25]
*133 la_data_in[26]
*134 la_data_in[27]
*135 la_data_in[28]
*136 la_data_in[29]
*137 la_data_in[2]
*138 la_data_in[30]
*139 la_data_in[31]
*140 la_data_in[32]
*141 la_data_in[33]
*142 la_data_in[34]
*143 la_data_in[35]
*144 la_data_in[36]
*145 la_data_in[37]
*146 la_data_in[38]
*147 la_data_in[39]
*148 la_data_in[3]
*149 la_data_in[40]
*150 la_data_in[41]
*151 la_data_in[42]
*152 la_data_in[43]
*153 la_data_in[44]
*154 la_data_in[45]
*155 la_data_in[46]
*156 la_data_in[47]
*157 la_data_in[48]
*158 la_data_in[49]
*159 la_data_in[4]
*160 la_data_in[50]
*161 la_data_in[51]
*162 la_data_in[52]
*163 la_data_in[53]
*164 la_data_in[54]
*165 la_data_in[55]
*166 la_data_in[56]
*167 la_data_in[57]
*168 la_data_in[58]
*169 la_data_in[59]
*170 la_data_in[5]
*171 la_data_in[60]
*172 la_data_in[61]
*173 la_data_in[62]
*174 la_data_in[63]
*175 la_data_in[6]
*176 la_data_in[7]
*177 la_data_in[8]
*178 la_data_in[9]
*179 la_data_out[0]
*180 la_data_out[10]
*181 la_data_out[11]
*182 la_data_out[12]
*183 la_data_out[13]
*184 la_data_out[14]
*185 la_data_out[15]
*186 la_data_out[16]
*187 la_data_out[17]
*188 la_data_out[18]
*189 la_data_out[19]
*190 la_data_out[1]
*191 la_data_out[20]
*192 la_data_out[21]
*193 la_data_out[22]
*194 la_data_out[23]
*195 la_data_out[24]
*196 la_data_out[25]
*197 la_data_out[26]
*198 la_data_out[27]
*199 la_data_out[28]
*200 la_data_out[29]
*201 la_data_out[2]
*202 la_data_out[30]
*203 la_data_out[31]
*204 la_data_out[32]
*205 la_data_out[33]
*206 la_data_out[34]
*207 la_data_out[35]
*208 la_data_out[36]
*209 la_data_out[37]
*210 la_data_out[38]
*211 la_data_out[39]
*212 la_data_out[3]
*213 la_data_out[40]
*214 la_data_out[41]
*215 la_data_out[42]
*216 la_data_out[43]
*217 la_data_out[44]
*218 la_data_out[45]
*219 la_data_out[46]
*220 la_data_out[47]
*221 la_data_out[48]
*222 la_data_out[49]
*223 la_data_out[4]
*224 la_data_out[50]
*225 la_data_out[51]
*226 la_data_out[52]
*227 la_data_out[53]
*228 la_data_out[54]
*229 la_data_out[55]
*230 la_data_out[56]
*231 la_data_out[57]
*232 la_data_out[58]
*233 la_data_out[59]
*234 la_data_out[5]
*235 la_data_out[60]
*236 la_data_out[61]
*237 la_data_out[62]
*238 la_data_out[63]
*239 la_data_out[6]
*240 la_data_out[7]
*241 la_data_out[8]
*242 la_data_out[9]
*243 la_oenb[0]
*244 la_oenb[10]
*245 la_oenb[11]
*246 la_oenb[12]
*247 la_oenb[13]
*248 la_oenb[14]
*249 la_oenb[15]
*250 la_oenb[16]
*251 la_oenb[17]
*252 la_oenb[18]
*253 la_oenb[19]
*254 la_oenb[1]
*255 la_oenb[20]
*256 la_oenb[21]
*257 la_oenb[22]
*258 la_oenb[23]
*259 la_oenb[24]
*260 la_oenb[25]
*261 la_oenb[26]
*262 la_oenb[27]
*263 la_oenb[28]
*264 la_oenb[29]
*265 la_oenb[2]
*266 la_oenb[30]
*267 la_oenb[31]
*268 la_oenb[32]
*269 la_oenb[33]
*270 la_oenb[34]
*271 la_oenb[35]
*272 la_oenb[36]
*273 la_oenb[37]
*274 la_oenb[38]
*275 la_oenb[39]
*276 la_oenb[3]
*277 la_oenb[40]
*278 la_oenb[41]
*279 la_oenb[42]
*280 la_oenb[43]
*281 la_oenb[44]
*282 la_oenb[45]
*283 la_oenb[46]
*284 la_oenb[47]
*285 la_oenb[48]
*286 la_oenb[49]
*287 la_oenb[4]
*288 la_oenb[50]
*289 la_oenb[51]
*290 la_oenb[52]
*291 la_oenb[53]
*292 la_oenb[54]
*293 la_oenb[55]
*294 la_oenb[56]
*295 la_oenb[57]
*296 la_oenb[58]
*297 la_oenb[59]
*298 la_oenb[5]
*299 la_oenb[60]
*300 la_oenb[61]
*301 la_oenb[62]
*302 la_oenb[63]
*303 la_oenb[6]
*304 la_oenb[7]
*305 la_oenb[8]
*306 la_oenb[9]
*307 user_clock2
*308 user_irq[0]
*309 user_irq[1]
*310 user_irq[2]
*313 wb_clk_i
*314 wb_rst_i
*315 wbs_ack_o
*316 wbs_adr_i[0]
*317 wbs_adr_i[10]
*318 wbs_adr_i[11]
*319 wbs_adr_i[12]
*320 wbs_adr_i[13]
*321 wbs_adr_i[14]
*322 wbs_adr_i[15]
*323 wbs_adr_i[16]
*324 wbs_adr_i[17]
*325 wbs_adr_i[18]
*326 wbs_adr_i[19]
*327 wbs_adr_i[1]
*328 wbs_adr_i[20]
*329 wbs_adr_i[21]
*330 wbs_adr_i[22]
*331 wbs_adr_i[23]
*332 wbs_adr_i[24]
*333 wbs_adr_i[25]
*334 wbs_adr_i[26]
*335 wbs_adr_i[27]
*336 wbs_adr_i[28]
*337 wbs_adr_i[29]
*338 wbs_adr_i[2]
*339 wbs_adr_i[30]
*340 wbs_adr_i[31]
*341 wbs_adr_i[3]
*342 wbs_adr_i[4]
*343 wbs_adr_i[5]
*344 wbs_adr_i[6]
*345 wbs_adr_i[7]
*346 wbs_adr_i[8]
*347 wbs_adr_i[9]
*348 wbs_cyc_i
*349 wbs_dat_i[0]
*350 wbs_dat_i[10]
*351 wbs_dat_i[11]
*352 wbs_dat_i[12]
*353 wbs_dat_i[13]
*354 wbs_dat_i[14]
*355 wbs_dat_i[15]
*356 wbs_dat_i[16]
*357 wbs_dat_i[17]
*358 wbs_dat_i[18]
*359 wbs_dat_i[19]
*360 wbs_dat_i[1]
*361 wbs_dat_i[20]
*362 wbs_dat_i[21]
*363 wbs_dat_i[22]
*364 wbs_dat_i[23]
*365 wbs_dat_i[24]
*366 wbs_dat_i[25]
*367 wbs_dat_i[26]
*368 wbs_dat_i[27]
*369 wbs_dat_i[28]
*370 wbs_dat_i[29]
*371 wbs_dat_i[2]
*372 wbs_dat_i[30]
*373 wbs_dat_i[31]
*374 wbs_dat_i[3]
*375 wbs_dat_i[4]
*376 wbs_dat_i[5]
*377 wbs_dat_i[6]
*378 wbs_dat_i[7]
*379 wbs_dat_i[8]
*380 wbs_dat_i[9]
*381 wbs_dat_o[0]
*382 wbs_dat_o[10]
*383 wbs_dat_o[11]
*384 wbs_dat_o[12]
*385 wbs_dat_o[13]
*386 wbs_dat_o[14]
*387 wbs_dat_o[15]
*388 wbs_dat_o[16]
*389 wbs_dat_o[17]
*390 wbs_dat_o[18]
*391 wbs_dat_o[19]
*392 wbs_dat_o[1]
*393 wbs_dat_o[20]
*394 wbs_dat_o[21]
*395 wbs_dat_o[22]
*396 wbs_dat_o[23]
*397 wbs_dat_o[24]
*398 wbs_dat_o[25]
*399 wbs_dat_o[26]
*400 wbs_dat_o[27]
*401 wbs_dat_o[28]
*402 wbs_dat_o[29]
*403 wbs_dat_o[2]
*404 wbs_dat_o[30]
*405 wbs_dat_o[31]
*406 wbs_dat_o[3]
*407 wbs_dat_o[4]
*408 wbs_dat_o[5]
*409 wbs_dat_o[6]
*410 wbs_dat_o[7]
*411 wbs_dat_o[8]
*412 wbs_dat_o[9]
*413 wbs_sel_i[0]
*414 wbs_sel_i[1]
*415 wbs_sel_i[2]
*416 wbs_sel_i[3]
*417 wbs_stb_i
*418 wbs_we_i
*419 solo_squash_caravel_gf180

*PORTS
io_in[0] I
io_in[10] I
io_in[11] I
io_in[12] I
io_in[13] I
io_in[14] I
io_in[15] I
io_in[16] I
io_in[17] I
io_in[18] I
io_in[19] I
io_in[1] I
io_in[20] I
io_in[21] I
io_in[22] I
io_in[23] I
io_in[24] I
io_in[25] I
io_in[26] I
io_in[27] I
io_in[28] I
io_in[29] I
io_in[2] I
io_in[30] I
io_in[31] I
io_in[32] I
io_in[33] I
io_in[34] I
io_in[35] I
io_in[36] I
io_in[37] I
io_in[3] I
io_in[4] I
io_in[5] I
io_in[6] I
io_in[7] I
io_in[8] I
io_in[9] I
io_oeb[0] O
io_oeb[10] O
io_oeb[11] O
io_oeb[12] O
io_oeb[13] O
io_oeb[14] O
io_oeb[15] O
io_oeb[16] O
io_oeb[17] O
io_oeb[18] O
io_oeb[19] O
io_oeb[1] O
io_oeb[20] O
io_oeb[21] O
io_oeb[22] O
io_oeb[23] O
io_oeb[24] O
io_oeb[25] O
io_oeb[26] O
io_oeb[27] O
io_oeb[28] O
io_oeb[29] O
io_oeb[2] O
io_oeb[30] O
io_oeb[31] O
io_oeb[32] O
io_oeb[33] O
io_oeb[34] O
io_oeb[35] O
io_oeb[36] O
io_oeb[37] O
io_oeb[3] O
io_oeb[4] O
io_oeb[5] O
io_oeb[6] O
io_oeb[7] O
io_oeb[8] O
io_oeb[9] O
io_out[0] O
io_out[10] O
io_out[11] O
io_out[12] O
io_out[13] O
io_out[14] O
io_out[15] O
io_out[16] O
io_out[17] O
io_out[18] O
io_out[19] O
io_out[1] O
io_out[20] O
io_out[21] O
io_out[22] O
io_out[23] O
io_out[24] O
io_out[25] O
io_out[26] O
io_out[27] O
io_out[28] O
io_out[29] O
io_out[2] O
io_out[30] O
io_out[31] O
io_out[32] O
io_out[33] O
io_out[34] O
io_out[35] O
io_out[36] O
io_out[37] O
io_out[3] O
io_out[4] O
io_out[5] O
io_out[6] O
io_out[7] O
io_out[8] O
io_out[9] O
la_data_in[0] I
la_data_in[10] I
la_data_in[11] I
la_data_in[12] I
la_data_in[13] I
la_data_in[14] I
la_data_in[15] I
la_data_in[16] I
la_data_in[17] I
la_data_in[18] I
la_data_in[19] I
la_data_in[1] I
la_data_in[20] I
la_data_in[21] I
la_data_in[22] I
la_data_in[23] I
la_data_in[24] I
la_data_in[25] I
la_data_in[26] I
la_data_in[27] I
la_data_in[28] I
la_data_in[29] I
la_data_in[2] I
la_data_in[30] I
la_data_in[31] I
la_data_in[32] I
la_data_in[33] I
la_data_in[34] I
la_data_in[35] I
la_data_in[36] I
la_data_in[37] I
la_data_in[38] I
la_data_in[39] I
la_data_in[3] I
la_data_in[40] I
la_data_in[41] I
la_data_in[42] I
la_data_in[43] I
la_data_in[44] I
la_data_in[45] I
la_data_in[46] I
la_data_in[47] I
la_data_in[48] I
la_data_in[49] I
la_data_in[4] I
la_data_in[50] I
la_data_in[51] I
la_data_in[52] I
la_data_in[53] I
la_data_in[54] I
la_data_in[55] I
la_data_in[56] I
la_data_in[57] I
la_data_in[58] I
la_data_in[59] I
la_data_in[5] I
la_data_in[60] I
la_data_in[61] I
la_data_in[62] I
la_data_in[63] I
la_data_in[6] I
la_data_in[7] I
la_data_in[8] I
la_data_in[9] I
la_data_out[0] O
la_data_out[10] O
la_data_out[11] O
la_data_out[12] O
la_data_out[13] O
la_data_out[14] O
la_data_out[15] O
la_data_out[16] O
la_data_out[17] O
la_data_out[18] O
la_data_out[19] O
la_data_out[1] O
la_data_out[20] O
la_data_out[21] O
la_data_out[22] O
la_data_out[23] O
la_data_out[24] O
la_data_out[25] O
la_data_out[26] O
la_data_out[27] O
la_data_out[28] O
la_data_out[29] O
la_data_out[2] O
la_data_out[30] O
la_data_out[31] O
la_data_out[32] O
la_data_out[33] O
la_data_out[34] O
la_data_out[35] O
la_data_out[36] O
la_data_out[37] O
la_data_out[38] O
la_data_out[39] O
la_data_out[3] O
la_data_out[40] O
la_data_out[41] O
la_data_out[42] O
la_data_out[43] O
la_data_out[44] O
la_data_out[45] O
la_data_out[46] O
la_data_out[47] O
la_data_out[48] O
la_data_out[49] O
la_data_out[4] O
la_data_out[50] O
la_data_out[51] O
la_data_out[52] O
la_data_out[53] O
la_data_out[54] O
la_data_out[55] O
la_data_out[56] O
la_data_out[57] O
la_data_out[58] O
la_data_out[59] O
la_data_out[5] O
la_data_out[60] O
la_data_out[61] O
la_data_out[62] O
la_data_out[63] O
la_data_out[6] O
la_data_out[7] O
la_data_out[8] O
la_data_out[9] O
la_oenb[0] I
la_oenb[10] I
la_oenb[11] I
la_oenb[12] I
la_oenb[13] I
la_oenb[14] I
la_oenb[15] I
la_oenb[16] I
la_oenb[17] I
la_oenb[18] I
la_oenb[19] I
la_oenb[1] I
la_oenb[20] I
la_oenb[21] I
la_oenb[22] I
la_oenb[23] I
la_oenb[24] I
la_oenb[25] I
la_oenb[26] I
la_oenb[27] I
la_oenb[28] I
la_oenb[29] I
la_oenb[2] I
la_oenb[30] I
la_oenb[31] I
la_oenb[32] I
la_oenb[33] I
la_oenb[34] I
la_oenb[35] I
la_oenb[36] I
la_oenb[37] I
la_oenb[38] I
la_oenb[39] I
la_oenb[3] I
la_oenb[40] I
la_oenb[41] I
la_oenb[42] I
la_oenb[43] I
la_oenb[44] I
la_oenb[45] I
la_oenb[46] I
la_oenb[47] I
la_oenb[48] I
la_oenb[49] I
la_oenb[4] I
la_oenb[50] I
la_oenb[51] I
la_oenb[52] I
la_oenb[53] I
la_oenb[54] I
la_oenb[55] I
la_oenb[56] I
la_oenb[57] I
la_oenb[58] I
la_oenb[59] I
la_oenb[5] I
la_oenb[60] I
la_oenb[61] I
la_oenb[62] I
la_oenb[63] I
la_oenb[6] I
la_oenb[7] I
la_oenb[8] I
la_oenb[9] I
user_clock2 I
user_irq[0] O
user_irq[1] O
user_irq[2] O
wb_clk_i I
wb_rst_i I
wbs_ack_o O
wbs_adr_i[0] I
wbs_adr_i[10] I
wbs_adr_i[11] I
wbs_adr_i[12] I
wbs_adr_i[13] I
wbs_adr_i[14] I
wbs_adr_i[15] I
wbs_adr_i[16] I
wbs_adr_i[17] I
wbs_adr_i[18] I
wbs_adr_i[19] I
wbs_adr_i[1] I
wbs_adr_i[20] I
wbs_adr_i[21] I
wbs_adr_i[22] I
wbs_adr_i[23] I
wbs_adr_i[24] I
wbs_adr_i[25] I
wbs_adr_i[26] I
wbs_adr_i[27] I
wbs_adr_i[28] I
wbs_adr_i[29] I
wbs_adr_i[2] I
wbs_adr_i[30] I
wbs_adr_i[31] I
wbs_adr_i[3] I
wbs_adr_i[4] I
wbs_adr_i[5] I
wbs_adr_i[6] I
wbs_adr_i[7] I
wbs_adr_i[8] I
wbs_adr_i[9] I
wbs_cyc_i I
wbs_dat_i[0] I
wbs_dat_i[10] I
wbs_dat_i[11] I
wbs_dat_i[12] I
wbs_dat_i[13] I
wbs_dat_i[14] I
wbs_dat_i[15] I
wbs_dat_i[16] I
wbs_dat_i[17] I
wbs_dat_i[18] I
wbs_dat_i[19] I
wbs_dat_i[1] I
wbs_dat_i[20] I
wbs_dat_i[21] I
wbs_dat_i[22] I
wbs_dat_i[23] I
wbs_dat_i[24] I
wbs_dat_i[25] I
wbs_dat_i[26] I
wbs_dat_i[27] I
wbs_dat_i[28] I
wbs_dat_i[29] I
wbs_dat_i[2] I
wbs_dat_i[30] I
wbs_dat_i[31] I
wbs_dat_i[3] I
wbs_dat_i[4] I
wbs_dat_i[5] I
wbs_dat_i[6] I
wbs_dat_i[7] I
wbs_dat_i[8] I
wbs_dat_i[9] I
wbs_dat_o[0] O
wbs_dat_o[10] O
wbs_dat_o[11] O
wbs_dat_o[12] O
wbs_dat_o[13] O
wbs_dat_o[14] O
wbs_dat_o[15] O
wbs_dat_o[16] O
wbs_dat_o[17] O
wbs_dat_o[18] O
wbs_dat_o[19] O
wbs_dat_o[1] O
wbs_dat_o[20] O
wbs_dat_o[21] O
wbs_dat_o[22] O
wbs_dat_o[23] O
wbs_dat_o[24] O
wbs_dat_o[25] O
wbs_dat_o[26] O
wbs_dat_o[27] O
wbs_dat_o[28] O
wbs_dat_o[29] O
wbs_dat_o[2] O
wbs_dat_o[30] O
wbs_dat_o[31] O
wbs_dat_o[3] O
wbs_dat_o[4] O
wbs_dat_o[5] O
wbs_dat_o[6] O
wbs_dat_o[7] O
wbs_dat_o[8] O
wbs_dat_o[9] O
wbs_sel_i[0] I
wbs_sel_i[1] I
wbs_sel_i[2] I
wbs_sel_i[3] I
wbs_stb_i I
wbs_we_i I

*D_NET *2 0.251987
*CONN
*P io_in[10] I
*I *419:new_game_n I *D solo_squash_caravel_gf180
*CAP
1 io_in[10] 0.0712682
2 *419:new_game_n 0.00057837
3 *2:9 0.0124244
4 *2:7 0.011846
5 *2:5 0.0712682
6 *419:new_game_n *86:7 2.81647e-05
7 *2:9 *40:9 0.0821609
8 *2:9 *63:9 0.00241255
*RES
1 io_in[10] *2:5 569.205 
2 *2:5 *2:7 4.5 
3 *2:7 *2:9 203.67 
4 *2:9 *419:new_game_n 8.685 
*END

*D_NET *3 0.23362
*CONN
*P io_in[11] I
*I *419:down_key_n I *D solo_squash_caravel_gf180
*CAP
1 io_in[11] 0.00167038
2 *419:down_key_n 0.000104732
3 *3:17 0.0336662
4 *3:15 0.0335615
5 *3:13 0.0695844
6 *3:11 0.0712547
7 *419:down_key_n *419:up_key_n 3.24247e-05
8 *3:11 *44:9 0.000394417
9 *3:17 *86:9 0.0233509
*RES
1 io_in[11] *3:11 21.555 
2 *3:11 *3:13 557.19 
3 *3:13 *3:15 4.5 
4 *3:15 *3:17 271.35 
5 *3:17 *419:down_key_n 5.445 
*END

*D_NET *4 0.389379
*CONN
*P io_in[12] I
*I *419:up_key_n I *D solo_squash_caravel_gf180
*CAP
1 io_in[12] 0.0711653
2 *419:up_key_n 0.000473268
3 *4:9 0.00782477
4 *4:7 0.0073515
5 *4:5 0.0711653
6 *4:9 *40:9 0.102841
7 *4:9 *41:9 0.128526
8 *419:down_key_n *419:up_key_n 3.24247e-05
*RES
1 io_in[12] *4:5 568.845 
2 *4:5 *4:7 4.5 
3 *4:7 *4:9 339.75 
4 *4:9 *419:up_key_n 8.325 
*END

*D_NET *37 0.15963
*CONN
*P io_in[8] I
*I *419:ext_reset_n I *D solo_squash_caravel_gf180
*CAP
1 io_in[8] 0.000961214
2 *419:ext_reset_n 0.0614594
3 *37:11 0.0614594
4 *37:9 0.00468364
5 *37:7 0.00564485
6 *419:ext_reset_n *419:wb_rst_i 5.7438e-05
7 *37:9 *74:9 0.0213027
8 *37:9 *76:9 0.00406125
*RES
1 io_in[8] *37:7 11.565 
2 *37:7 *37:9 74.07 
3 *37:9 *37:11 4.5 
4 *37:11 *419:ext_reset_n 491.085 
*END

*D_NET *38 0.273012
*CONN
*P io_in[9] I
*I *419:pause_n I *D solo_squash_caravel_gf180
*CAP
1 io_in[9] 0.0014065
2 *419:pause_n 0.00033996
3 *38:13 0.049043
4 *38:11 0.048703
5 *38:9 0.0238266
6 *38:7 0.0252331
7 *419:pause_n *85:7 8.62694e-05
8 *38:9 io_oeb[6] 0.00119216
9 *38:9 *44:9 0.0133758
10 *38:13 *75:9 0.109806
*RES
1 io_in[9] *38:7 12.825 
2 *38:7 *38:9 182.79 
3 *38:9 *38:11 4.5 
4 *38:11 *38:13 524.43 
5 *38:13 *419:pause_n 7.425 
*END

*D_NET *39 0.314567
*CONN
*P io_oeb[0] O
*I *419:io_oeb[0] O *D solo_squash_caravel_gf180
*CAP
1 io_oeb[0] 0.0614751
2 *419:io_oeb[0] 0.000620643
3 *39:11 0.0614751
4 *39:9 0.0246119
5 *39:7 0.0252326
6 *39:7 *53:11 5.7438e-05
7 *39:7 *62:19 0
8 *39:9 *61:9 0.117675
9 *39:9 *62:9 0.00788651
10 *39:9 *64:9 0.00557752
11 *39:9 *65:9 0.00523522
12 *39:9 *67:9 0.00472054
13 *39:9 *68:9 0
*RES
1 *419:io_oeb[0] *39:7 8.325 
2 *39:7 *39:9 421.29 
3 *39:9 *39:11 4.5 
4 *39:11 io_oeb[0] 494.325 
*END

*D_NET *40 0.34518
*CONN
*P io_oeb[10] O
*I *419:io_oeb[10] O *D solo_squash_caravel_gf180
*CAP
1 io_oeb[10] 0.0712297
2 *419:io_oeb[10] 0.000452278
3 *40:11 0.0712297
4 *40:9 0.0047567
5 *40:7 0.00520898
6 *40:7 *41:7 0.000125067
7 *40:9 *41:9 0.00451237
8 *40:9 *63:9 0.00181098
9 *40:9 *72:9 0.000851704
10 *2:9 *40:9 0.0821609
11 *4:9 *40:9 0.102841
*RES
1 *419:io_oeb[10] *40:7 8.505 
2 *40:7 *40:9 280.89 
3 *40:9 *40:11 4.5 
4 *40:11 io_oeb[10] 569.025 
*END

*D_NET *41 0.320122
*CONN
*P io_oeb[11] O
*I *419:io_oeb[11] O *D solo_squash_caravel_gf180
*CAP
1 io_oeb[11] 0.0711437
2 *419:io_oeb[11] 0.000408312
3 *41:11 0.0711437
4 *41:9 0.0216739
5 *41:7 0.0220822
6 *41:7 *72:9 7.37964e-05
7 *41:9 *72:9 0.000433503
8 *4:9 *41:9 0.128526
9 *40:7 *41:7 0.000125067
10 *40:9 *41:9 0.00451237
*RES
1 *419:io_oeb[11] *41:7 8.145 
2 *41:7 *41:9 343.35 
3 *41:9 *41:11 4.5 
4 *41:11 io_oeb[11] 568.665 
*END

*D_NET *42 0.384255
*CONN
*P io_oeb[12] O
*I *419:io_oeb[12] O *D solo_squash_caravel_gf180
*CAP
1 io_oeb[12] 0.00102595
2 *419:io_oeb[12] 0.0764398
3 *42:9 0.013431
4 *42:7 0.012405
5 *42:5 0.0764398
6 *42:5 *55:11 4.01323e-05
7 *42:5 *60:11 5.83693e-05
8 *42:9 *76:9 0.0636114
9 *42:9 *81:9 0.140804
*RES
1 *419:io_oeb[12] *42:5 490.545 
2 *42:5 *42:7 4.5 
3 *42:7 *42:9 348.75 
4 *42:9 io_oeb[12] 12.105 
*END

*D_NET *43 0.485556
*CONN
*P io_oeb[13] O
*I *419:io_oeb[13] O *D solo_squash_caravel_gf180
*CAP
1 io_oeb[13] 0.00106911
2 *419:io_oeb[13] 0.0530869
3 *43:9 0.00361926
4 *43:7 0.00255015
5 *43:5 0.0530869
6 *43:5 *48:5 0.00298111
7 *43:5 *83:5 0.0146822
8 *43:9 io_oeb[6] 0.00259445
9 *43:9 *44:9 0.000424576
10 *43:9 *76:9 0.00086108
11 *43:9 *81:9 0.171432
12 *43:9 *82:9 0.179168
*RES
1 *419:io_oeb[13] *43:5 490.185 
2 *43:5 *43:7 4.5 
3 *43:7 *43:9 452.43 
4 *43:9 io_oeb[13] 12.465 
*END

*D_NET *44 0.405036
*CONN
*P io_oeb[14] O
*I *419:io_oeb[14] O *D solo_squash_caravel_gf180
*CAP
1 io_oeb[14] 0.00111227
2 *419:io_oeb[14] 0.0503674
3 *44:9 0.0345083
4 *44:7 0.033396
5 *44:5 0.0503674
6 *44:5 *45:5 0.0135155
7 *44:5 *46:5 0.00997748
8 *44:9 io_oeb[6] 0.00127884
9 *44:9 *82:9 0.196318
10 *3:11 *44:9 0.000394417
11 *38:9 *44:9 0.0133758
12 *43:9 *44:9 0.000424576
*RES
1 *419:io_oeb[14] *44:5 489.825 
2 *44:5 *44:7 4.5 
3 *44:7 *44:9 512.91 
4 *44:9 io_oeb[14] 12.825 
*END

*D_NET *45 0.239693
*CONN
*P io_oeb[15] O
*I *419:io_oeb[15] O *D solo_squash_caravel_gf180
*CAP
1 io_oeb[15] 0.0678732
2 *419:io_oeb[15] 0.041972
3 *45:7 0.0678732
4 *45:5 0.041972
5 *45:5 *47:5 0.0064869
6 *44:5 *45:5 0.0135155
*RES
1 *419:io_oeb[15] *45:5 409.545 
2 *45:5 *45:7 4.5 
3 *45:7 io_oeb[15] 523.125 
*END

*D_NET *46 0.213405
*CONN
*P io_oeb[16] O
*I *419:io_oeb[16] O *D solo_squash_caravel_gf180
*CAP
1 io_oeb[16] 0.068197
2 *419:io_oeb[16] 0.0320274
3 *46:7 0.068197
4 *46:5 0.0320274
5 *46:5 *48:5 0.00297825
6 *44:5 *46:5 0.00997748
*RES
1 *419:io_oeb[16] *46:5 303.165 
2 *46:5 *46:7 4.5 
3 *46:7 io_oeb[16] 525.285 
*END

*D_NET *47 0.185887
*CONN
*P io_oeb[17] O
*I *419:io_oeb[17] O *D solo_squash_caravel_gf180
*CAP
1 io_oeb[17] 0.0677512
2 *419:io_oeb[17] 0.0187066
3 *47:7 0.0677512
4 *47:5 0.0187066
5 *47:5 *81:5 0.00648404
6 *45:5 *47:5 0.0064869
*RES
1 *419:io_oeb[17] *47:5 196.965 
2 *47:5 *47:7 4.5 
3 *47:7 io_oeb[17] 522.045 
*END

*D_NET *48 0.159892
*CONN
*P io_oeb[18] O
*I *419:io_oeb[18] O *D solo_squash_caravel_gf180
*CAP
1 io_oeb[18] 0.0683828
2 *419:io_oeb[18] 0.00858335
3 *48:7 0.0683828
4 *48:5 0.00858335
5 *43:5 *48:5 0.00298111
6 *46:5 *48:5 0.00297825
*RES
1 *419:io_oeb[18] *48:5 90.405 
2 *48:5 *48:7 4.5 
3 *48:7 io_oeb[18] 526.365 
*END

*D_NET *49 0.177356
*CONN
*P io_oeb[19] O
*I *419:io_oeb[19] O *D solo_squash_caravel_gf180
*CAP
1 io_oeb[19] 0.0622965
2 *419:io_oeb[19] 0.000167661
3 *49:15 0.0634917
4 *49:9 0.00340153
5 *49:7 0.00237393
6 *49:9 *51:9 0.024048
7 *49:9 *52:11 0.0186574
8 *49:15 *51:13 0.00291795
9 *49:15 *52:17 1.39558e-06
*RES
1 *419:io_oeb[19] *49:7 5.265 
2 *49:7 *49:9 66.51 
3 *49:9 *49:15 25.11 
4 *49:15 io_oeb[19] 479.745 
*END

*D_NET *50 0.202487
*CONN
*P io_oeb[1] O
*I *419:io_oeb[1] O *D solo_squash_caravel_gf180
*CAP
1 io_oeb[1] 0.0638919
2 *419:io_oeb[1] 0.0373516
3 *50:7 0.0638919
4 *50:5 0.0373516
*RES
1 *419:io_oeb[1] *50:5 287.505 
2 *50:5 *50:7 4.5 
3 *50:7 io_oeb[1] 512.145 
*END

*D_NET *51 0.218985
*CONN
*P io_oeb[20] O
*I *419:io_oeb[20] O *D solo_squash_caravel_gf180
*CAP
1 io_oeb[20] 0.0622627
2 *419:io_oeb[20] 0.000221353
3 *51:15 0.0622627
4 *51:13 0.0073709
5 *51:11 0.0073709
6 *51:9 0.00573426
7 *51:7 0.00595561
8 *51:13 *52:17 0.00376817
9 *51:13 *52:19 0.0370728
10 *49:9 *51:9 0.024048
11 *49:15 *51:13 0.00291795
*RES
1 *419:io_oeb[20] *51:7 5.265 
2 *51:7 *51:9 65.07 
3 *51:9 *51:11 4.5 
4 *51:11 *51:13 122.31 
5 *51:13 *51:15 4.5 
6 *51:15 io_oeb[20] 480.105 
*END

*D_NET *52 0.237372
*CONN
*P io_oeb[21] O
*I *419:io_oeb[21] O *D solo_squash_caravel_gf180
*CAP
1 io_oeb[21] 0.0622857
2 *419:io_oeb[21] 0.000279241
3 *52:21 0.0622857
4 *52:19 0.0191564
5 *52:17 0.0215205
6 *52:11 0.00692802
7 *52:9 0.00484322
8 *52:9 *87:7 1.74192e-05
9 *52:17 *62:19 0.000556172
10 *49:9 *52:11 0.0186574
11 *49:15 *52:17 1.39558e-06
12 *51:13 *52:17 0.00376817
13 *51:13 *52:19 0.0370728
*RES
1 *419:io_oeb[21] *52:9 5.535 
2 *52:9 *52:11 50.49 
3 *52:11 *52:17 35.19 
4 *52:17 *52:19 198.9 
5 *52:19 *52:21 4.5 
6 *52:21 io_oeb[21] 480.285 
*END

*D_NET *53 0.31019
*CONN
*P io_oeb[22] O
*I *419:io_oeb[22] O *D solo_squash_caravel_gf180
*CAP
1 io_oeb[22] 0.0010524
2 *419:io_oeb[22] 0.000935568
3 *53:21 0.0183472
4 *53:19 0.0172948
5 *53:17 0.0606682
6 *53:15 0.0606682
7 *53:13 0.00364383
8 *53:11 0.0045794
9 *53:11 *54:9 0.00303325
10 *53:11 *60:11 0.000469598
11 *53:11 *61:7 5.83693e-05
12 *53:13 *54:13 0.0221968
13 *53:17 *57:7 7.191e-07
14 *53:21 *54:21 0.111195
15 *53:21 *86:13 0.00598929
16 *39:7 *53:11 5.7438e-05
*RES
1 *419:io_oeb[22] *53:11 19.395 
2 *53:11 *53:13 55.53 
3 *53:13 *53:15 4.5 
4 *53:15 *53:17 467.37 
5 *53:17 *53:19 4.5 
6 *53:19 *53:21 281.97 
7 *53:21 io_oeb[22] 12.645 
*END

*D_NET *54 0.372113
*CONN
*P io_oeb[23] O
*I *419:io_oeb[23] O *D solo_squash_caravel_gf180
*CAP
1 io_oeb[23] 0.00107539
2 *419:io_oeb[23] 0.000468303
3 *54:21 0.0317535
4 *54:19 0.0306781
5 *54:17 0.0606066
6 *54:15 0.0606066
7 *54:13 0.00123903
8 *54:11 0.00123903
9 *54:9 0.00615087
10 *54:7 0.00661917
11 *54:7 *56:7 8.46698e-06
12 *54:9 *55:11 0.000242896
13 *54:9 *67:9 0.00244722
14 *54:9 *314:13 0.011789
15 *54:13 *55:13 0.0190671
16 *54:13 *57:9 0.00169694
17 *53:11 *54:9 0.00303325
18 *53:13 *54:13 0.0221968
19 *53:21 *54:21 0.111195
*RES
1 *419:io_oeb[23] *54:7 7.245 
2 *54:7 *54:9 64.17 
3 *54:9 *54:11 4.5 
4 *54:11 *54:13 61.11 
5 *54:13 *54:15 4.5 
6 *54:15 *54:17 467.01 
7 *54:17 *54:19 4.5 
8 *54:19 *54:21 382.95 
9 *54:21 io_oeb[23] 12.825 
*END

*D_NET *55 0.238755
*CONN
*P io_oeb[24] O
*I *419:io_oeb[24] O *D solo_squash_caravel_gf180
*CAP
1 io_oeb[24] 0.051729
2 *419:io_oeb[24] 0.00114375
3 *55:19 0.051729
4 *55:17 0.0509413
5 *55:15 0.0509413
6 *55:13 0.00308763
7 *55:11 0.00423139
8 *55:11 *60:11 0.00450243
9 *55:11 *62:9 0.000578431
10 *55:11 *65:7 5.91675e-05
11 *55:11 *65:9 0.000461537
12 *42:5 *55:11 4.01323e-05
13 *54:9 *55:11 0.000242896
14 *54:13 *55:13 0.0190671
*RES
1 *419:io_oeb[24] *55:11 23.175 
2 *55:11 *55:13 47.61 
3 *55:13 *55:15 4.5 
4 *55:15 *55:17 416.07 
5 *55:17 *55:19 4.5 
6 *55:19 io_oeb[24] 413.865 
*END

*D_NET *56 0.399682
*CONN
*P io_oeb[25] O
*I *419:io_oeb[25] O *D solo_squash_caravel_gf180
*CAP
1 io_oeb[25] 0.000751787
2 *419:io_oeb[25] 0.000190321
3 *56:17 0.0312556
4 *56:15 0.0305038
5 *56:13 0.029217
6 *56:11 0.029217
7 *56:9 0.0190442
8 *56:7 0.0192346
9 *56:7 *76:5 1.18047e-05
10 *56:9 *60:11 0
11 *56:9 *67:9 0
12 *56:9 *68:9 0
13 *56:13 io_oeb[30] 0.181128
14 *56:17 *57:13 0.0244036
15 *56:17 *58:9 0.00895459
16 *56:17 *59:9 0.0257616
17 *54:7 *56:7 8.46698e-06
*RES
1 *419:io_oeb[25] *56:7 5.445 
2 *56:7 *56:9 73.35 
3 *56:9 *56:11 4.5 
4 *56:11 *56:13 453.51 
5 *56:13 *56:15 4.5 
6 *56:15 *56:17 340.11 
7 *56:17 io_oeb[25] 10.665 
*END

*D_NET *57 0.200619
*CONN
*P io_oeb[26] O
*I *419:io_oeb[26] O *D solo_squash_caravel_gf180
*CAP
1 io_oeb[26] 0.000758739
2 *419:io_oeb[26] 0.000550403
3 *57:13 0.0371367
4 *57:11 0.0363779
5 *57:9 0.0495717
6 *57:7 0.0501221
7 *53:17 *57:7 7.191e-07
8 *54:13 *57:9 0.00169694
9 *56:17 *57:13 0.0244036
*RES
1 *419:io_oeb[26] *57:7 8.505 
2 *57:7 *57:9 398.61 
3 *57:9 *57:11 4.5 
4 *57:11 *57:13 280.35 
5 *57:13 io_oeb[26] 10.665 
*END

*D_NET *58 0.203218
*CONN
*P io_oeb[27] O
*I *419:io_oeb[27] O *D solo_squash_caravel_gf180
*CAP
1 io_oeb[27] 0.000842698
2 *419:io_oeb[27] 0.0422316
3 *58:9 0.0159356
4 *58:7 0.0150929
5 *58:5 0.0422316
6 *58:5 *66:5 0.0127112
7 *58:9 *59:9 0.0652183
8 *56:17 *58:9 0.00895459
*RES
1 *419:io_oeb[27] *58:5 385.065 
2 *58:5 *58:7 4.5 
3 *58:7 *58:9 229.77 
4 *58:9 io_oeb[27] 11.205 
*END

*D_NET *59 0.221671
*CONN
*P io_oeb[28] O
*I *419:io_oeb[28] O *D solo_squash_caravel_gf180
*CAP
1 io_oeb[28] 0.000821118
2 *419:io_oeb[28] 0.0421144
3 *59:9 0.0063096
4 *59:7 0.00548848
5 *59:5 0.0421144
6 *59:5 *69:5 0.0127364
7 *59:5 *72:9 0.000123468
8 *59:9 *66:9 0.0209829
9 *56:17 *59:9 0.0257616
10 *58:9 *59:9 0.0652183
*RES
1 *419:io_oeb[28] *59:5 385.245 
2 *59:5 *59:7 4.5 
3 *59:7 *59:9 212.49 
4 *59:9 io_oeb[28] 11.025 
*END

*D_NET *60 0.142742
*CONN
*P io_oeb[29] O
*I *419:io_oeb[29] O *D solo_squash_caravel_gf180
*CAP
1 io_oeb[29] 0.00156072
2 *419:io_oeb[29] 0.00308197
3 *60:17 0.0093049
4 *60:15 0.00774418
5 *60:13 0.0562706
6 *60:11 0.0593525
7 *60:11 *65:9 0.000335377
8 *60:11 *67:7 6.17031e-05
9 *42:5 *60:11 5.83693e-05
10 *53:11 *60:11 0.000469598
11 *55:11 *60:11 0.00450243
12 *56:9 *60:11 0
*RES
1 *419:io_oeb[29] *60:11 38.295 
2 *60:11 *60:13 449.73 
3 *60:13 *60:15 4.5 
4 *60:15 *60:17 62.73 
5 *60:17 io_oeb[29] 16.065 
*END

*D_NET *61 0.278909
*CONN
*P io_oeb[2] O
*I *419:io_oeb[2] O *D solo_squash_caravel_gf180
*CAP
1 io_oeb[2] 0.0614535
2 *419:io_oeb[2] 0.000627297
3 *61:11 0.0614535
4 *61:9 0.018477
5 *61:7 0.0191043
6 *61:7 *65:7 6.05878e-05
7 *39:9 *61:9 0.117675
8 *53:11 *61:7 5.83693e-05
*RES
1 *419:io_oeb[2] *61:7 8.505 
2 *61:7 *61:9 291.87 
3 *61:9 *61:11 4.5 
4 *61:11 io_oeb[2] 494.145 
*END

*D_NET *62 0.28013
*CONN
*P io_oeb[30] O
*I *419:io_oeb[30] O *D solo_squash_caravel_gf180
*CAP
1 io_oeb[30] 0.0295794
2 *419:io_oeb[30] 0.000490871
3 *62:19 0.0320742
4 *62:9 0.00372435
5 *62:7 0.00172045
6 *62:7 *73:5 7.30761e-05
7 *62:7 *74:5 6.97383e-05
8 *62:9 *64:9 0.0212814
9 *62:9 *65:9 0.000967353
10 *39:7 *62:19 0
11 *39:9 *62:9 0.00788651
12 *52:17 *62:19 0.000556172
13 *55:11 *62:9 0.000578431
14 *56:13 io_oeb[30] 0.181128
*RES
1 *419:io_oeb[30] *62:7 7.785 
2 *62:7 *62:9 62.91 
3 *62:9 *62:19 31.68 
4 *62:19 io_oeb[30] 457.425 
*END

*D_NET *63 0.134652
*CONN
*P io_oeb[31] O
*I *419:io_oeb[31] O *D solo_squash_caravel_gf180
*CAP
1 io_oeb[31] 0.0602122
2 *419:io_oeb[31] 0.000715618
3 *63:11 0.0602122
4 *63:9 0.00424211
5 *63:7 0.00495773
6 *63:7 *419:wb_clk_i 8.86588e-05
7 *2:9 *63:9 0.00241255
8 *40:9 *63:9 0.00181098
*RES
1 *419:io_oeb[31] *63:7 9.405 
2 *63:7 *63:9 49.05 
3 *63:9 *63:11 4.5 
4 *63:11 io_oeb[31] 386.865 
*END

*D_NET *64 0.220827
*CONN
*P io_oeb[32] O
*I *419:io_oeb[32] O *D solo_squash_caravel_gf180
*CAP
1 io_oeb[32] 0.0720035
2 *419:io_oeb[32] 0.00048435
3 *64:11 0.0720035
4 *64:9 0.00176276
5 *64:7 0.00224711
6 *64:7 *67:7 6.36141e-05
7 *64:7 *68:7 5.83693e-05
8 *64:9 *65:9 0.0453452
9 *39:9 *64:9 0.00557752
10 *62:9 *64:9 0.0212814
*RES
1 *419:io_oeb[32] *64:7 7.605 
2 *64:7 *64:9 112.77 
3 *64:9 *64:11 4.5 
4 *64:11 io_oeb[32] 461.745 
*END

*D_NET *65 0.247353
*CONN
*P io_oeb[33] O
*I *419:io_oeb[33] O *D solo_squash_caravel_gf180
*CAP
1 io_oeb[33] 0.057702
2 *419:io_oeb[33] 0.000457197
3 *65:11 0.057702
4 *65:9 0.00267041
5 *65:7 0.00312761
6 *65:9 *67:9 0.0732299
7 *39:9 *65:9 0.00523522
8 *55:11 *65:7 5.91675e-05
9 *55:11 *65:9 0.000461537
10 *60:11 *65:9 0.000335377
11 *61:7 *65:7 6.05878e-05
12 *62:9 *65:9 0.000967353
13 *64:9 *65:9 0.0453452
*RES
1 *419:io_oeb[33] *65:7 7.425 
2 *65:7 *65:9 186.21 
3 *65:9 *65:11 4.5 
4 *65:11 io_oeb[33] 461.565 
*END

*D_NET *66 0.230504
*CONN
*P io_oeb[34] O
*I *419:io_oeb[34] O *D solo_squash_caravel_gf180
*CAP
1 io_oeb[34] 0.000987103
2 *419:io_oeb[34] 0.0423086
3 *66:9 0.0164029
4 *66:7 0.0154158
5 *66:5 0.0423086
6 *66:9 *69:9 0.0793869
7 *58:5 *66:5 0.0127112
8 *59:9 *66:9 0.0209829
*RES
1 *419:io_oeb[34] *66:5 385.425 
2 *66:5 *66:7 4.5 
3 *66:7 *66:9 247.41 
4 *66:9 io_oeb[34] 10.845 
*END

*D_NET *67 0.350255
*CONN
*P io_oeb[35] O
*I *419:io_oeb[35] O *D solo_squash_caravel_gf180
*CAP
1 io_oeb[35] 0.0576274
2 *419:io_oeb[35] 0.000397244
3 *67:11 0.0576274
4 *67:9 0.00741007
5 *67:7 0.00780731
6 *67:9 *68:9 0.12726
7 *67:9 *115:13 0.0116026
8 *39:9 *67:9 0.00472054
9 *54:9 *67:9 0.00244722
10 *56:9 *67:9 0
11 *60:11 *67:7 6.17031e-05
12 *64:7 *67:7 6.36141e-05
13 *65:9 *67:9 0.0732299
*RES
1 *419:io_oeb[35] *67:7 7.245 
2 *67:7 *67:9 317.97 
3 *67:9 *67:11 4.5 
4 *67:11 io_oeb[35] 461.385 
*END

*D_NET *68 0.334737
*CONN
*P io_oeb[36] O
*I *419:io_oeb[36] O *D solo_squash_caravel_gf180
*CAP
1 io_oeb[36] 0.0575624
2 *419:io_oeb[36] 0.00039986
3 *68:11 0.0575624
4 *68:9 0.029007
5 *68:7 0.0294069
6 *68:9 *115:13 0.00238911
7 *68:9 *314:13 0.0310914
8 *39:9 *68:9 0
9 *56:9 *68:9 0
10 *64:7 *68:7 5.83693e-05
11 *67:9 *68:9 0.12726
*RES
1 *419:io_oeb[36] *68:7 7.065 
2 *68:7 *68:9 383.85 
3 *68:9 *68:11 4.5 