*SPEF "ieee 1481-1999"
*DESIGN "user_project_wrapper"
*DATE "11:11:11 Fri 11 11, 1111"
*VENDOR "OpenRCX"
*PROGRAM "Parallel Extraction"
*VERSION "1.0"
*DESIGN_FLOW "NAME_SCOPE LOCAL" "PIN_CAP NONE"
*DIVIDER /
*DELIMITER :
*BUS_DELIMITER []
*T_UNIT 1 NS
*C_UNIT 1 PF
*R_UNIT 1 OHM
*L_UNIT 1 HENRY

*NAME_MAP
*1 io_in[0]
*2 io_in[10]
*3 io_in[11]
*4 io_in[12]
*5 io_in[13]
*6 io_in[14]
*7 io_in[15]
*8 io_in[16]
*9 io_in[17]
*10 io_in[18]
*11 io_in[19]
*12 io_in[1]
*13 io_in[20]
*14 io_in[21]
*15 io_in[22]
*16 io_in[23]
*17 io_in[24]
*18 io_in[25]
*19 io_in[26]
*20 io_in[27]
*21 io_in[28]
*22 io_in[29]
*23 io_in[2]
*24 io_in[30]
*25 io_in[31]
*26 io_in[32]
*27 io_in[33]
*28 io_in[34]
*29 io_in[35]
*30 io_in[36]
*31 io_in[37]
*32 io_in[3]
*33 io_in[4]
*34 io_in[5]
*35 io_in[6]
*36 io_in[7]
*37 io_in[8]
*38 io_in[9]
*39 io_oeb[0]
*40 io_oeb[10]
*41 io_oeb[11]
*42 io_oeb[12]
*43 io_oeb[13]
*44 io_oeb[14]
*45 io_oeb[15]
*46 io_oeb[16]
*47 io_oeb[17]
*48 io_oeb[18]
*49 io_oeb[19]
*50 io_oeb[1]
*51 io_oeb[20]
*52 io_oeb[21]
*53 io_oeb[22]
*54 io_oeb[23]
*55 io_oeb[24]
*56 io_oeb[25]
*57 io_oeb[26]
*58 io_oeb[27]
*59 io_oeb[28]
*60 io_oeb[29]
*61 io_oeb[2]
*62 io_oeb[30]
*63 io_oeb[31]
*64 io_oeb[32]
*65 io_oeb[33]
*66 io_oeb[34]
*67 io_oeb[35]
*68 io_oeb[36]
*69 io_oeb[37]
*70 io_oeb[3]
*71 io_oeb[4]
*72 io_oeb[5]
*73 io_oeb[6]
*74 io_oeb[7]
*75 io_oeb[8]
*76 io_oeb[9]
*77 io_out[0]
*78 io_out[10]
*79 io_out[11]
*80 io_out[12]
*81 io_out[13]
*82 io_out[14]
*83 io_out[15]
*84 io_out[16]
*85 io_out[17]
*86 io_out[18]
*87 io_out[19]
*88 io_out[1]
*89 io_out[20]
*90 io_out[21]
*91 io_out[22]
*92 io_out[23]
*93 io_out[24]
*94 io_out[25]
*95 io_out[26]
*96 io_out[27]
*97 io_out[28]
*98 io_out[29]
*99 io_out[2]
*100 io_out[30]
*101 io_out[31]
*102 io_out[32]
*103 io_out[33]
*104 io_out[34]
*105 io_out[35]
*106 io_out[36]
*107 io_out[37]
*108 io_out[3]
*109 io_out[4]
*110 io_out[5]
*111 io_out[6]
*112 io_out[7]
*113 io_out[8]
*114 io_out[9]
*115 la_data_in[0]
*116 la_data_in[10]
*117 la_data_in[11]
*118 la_data_in[12]
*119 la_data_in[13]
*120 la_data_in[14]
*121 la_data_in[15]
*122 la_data_in[16]
*123 la_data_in[17]
*124 la_data_in[18]
*125 la_data_in[19]
*126 la_data_in[1]
*127 la_data_in[20]
*128 la_data_in[21]
*129 la_data_in[22]
*130 la_data_in[23]
*131 la_data_in[24]
*132 la_data_in[25]
*133 la_data_in[26]
*134 la_data_in[27]
*135 la_data_in[28]
*136 la_data_in[29]
*137 la_data_in[2]
*138 la_data_in[30]
*139 la_data_in[31]
*140 la_data_in[32]
*141 la_data_in[33]
*142 la_data_in[34]
*143 la_data_in[35]
*144 la_data_in[36]
*145 la_data_in[37]
*146 la_data_in[38]
*147 la_data_in[39]
*148 la_data_in[3]
*149 la_data_in[40]
*150 la_data_in[41]
*151 la_data_in[42]
*152 la_data_in[43]
*153 la_data_in[44]
*154 la_data_in[45]
*155 la_data_in[46]
*156 la_data_in[47]
*157 la_data_in[48]
*158 la_data_in[49]
*159 la_data_in[4]
*160 la_data_in[50]
*161 la_data_in[51]
*162 la_data_in[52]
*163 la_data_in[53]
*164 la_data_in[54]
*165 la_data_in[55]
*166 la_data_in[56]
*167 la_data_in[57]
*168 la_data_in[58]
*169 la_data_in[59]
*170 la_data_in[5]
*171 la_data_in[60]
*172 la_data_in[61]
*173 la_data_in[62]
*174 la_data_in[63]
*175 la_data_in[6]
*176 la_data_in[7]
*177 la_data_in[8]
*178 la_data_in[9]
*179 la_data_out[0]
*180 la_data_out[10]
*181 la_data_out[11]
*182 la_data_out[12]
*183 la_data_out[13]
*184 la_data_out[14]
*185 la_data_out[15]
*186 la_data_out[16]
*187 la_data_out[17]
*188 la_data_out[18]
*189 la_data_out[19]
*190 la_data_out[1]
*191 la_data_out[20]
*192 la_data_out[21]
*193 la_data_out[22]
*194 la_data_out[23]
*195 la_data_out[24]
*196 la_data_out[25]
*197 la_data_out[26]
*198 la_data_out[27]
*199 la_data_out[28]
*200 la_data_out[29]
*201 la_data_out[2]
*202 la_data_out[30]
*203 la_data_out[31]
*204 la_data_out[32]
*205 la_data_out[33]
*206 la_data_out[34]
*207 la_data_out[35]
*208 la_data_out[36]
*209 la_data_out[37]
*210 la_data_out[38]
*211 la_data_out[39]
*212 la_data_out[3]
*213 la_data_out[40]
*214 la_data_out[41]
*215 la_data_out[42]
*216 la_data_out[43]
*217 la_data_out[44]
*218 la_data_out[45]
*219 la_data_out[46]
*220 la_data_out[47]
*221 la_data_out[48]
*222 la_data_out[49]
*223 la_data_out[4]
*224 la_data_out[50]
*225 la_data_out[51]
*226 la_data_out[52]
*227 la_data_out[53]
*228 la_data_out[54]
*229 la_data_out[55]
*230 la_data_out[56]
*231 la_data_out[57]
*232 la_data_out[58]
*233 la_data_out[59]
*234 la_data_out[5]
*235 la_data_out[60]
*236 la_data_out[61]
*237 la_data_out[62]
*238 la_data_out[63]
*239 la_data_out[6]
*240 la_data_out[7]
*241 la_data_out[8]
*242 la_data_out[9]
*243 la_oenb[0]
*244 la_oenb[10]
*245 la_oenb[11]
*246 la_oenb[12]
*247 la_oenb[13]
*248 la_oenb[14]
*249 la_oenb[15]
*250 la_oenb[16]
*251 la_oenb[17]
*252 la_oenb[18]
*253 la_oenb[19]
*254 la_oenb[1]
*255 la_oenb[20]
*256 la_oenb[21]
*257 la_oenb[22]
*258 la_oenb[23]
*259 la_oenb[24]
*260 la_oenb[25]
*261 la_oenb[26]
*262 la_oenb[27]
*263 la_oenb[28]
*264 la_oenb[29]
*265 la_oenb[2]
*266 la_oenb[30]
*267 la_oenb[31]
*268 la_oenb[32]
*269 la_oenb[33]
*270 la_oenb[34]
*271 la_oenb[35]
*272 la_oenb[36]
*273 la_oenb[37]
*274 la_oenb[38]
*275 la_oenb[39]
*276 la_oenb[3]
*277 la_oenb[40]
*278 la_oenb[41]
*279 la_oenb[42]
*280 la_oenb[43]
*281 la_oenb[44]
*282 la_oenb[45]
*283 la_oenb[46]
*284 la_oenb[47]
*285 la_oenb[48]
*286 la_oenb[49]
*287 la_oenb[4]
*288 la_oenb[50]
*289 la_oenb[51]
*290 la_oenb[52]
*291 la_oenb[53]
*292 la_oenb[54]
*293 la_oenb[55]
*294 la_oenb[56]
*295 la_oenb[57]
*296 la_oenb[58]
*297 la_oenb[59]
*298 la_oenb[5]
*299 la_oenb[60]
*300 la_oenb[61]
*301 la_oenb[62]
*302 la_oenb[63]
*303 la_oenb[6]
*304 la_oenb[7]
*305 la_oenb[8]
*306 la_oenb[9]
*307 user_clock2
*308 user_irq[0]
*309 user_irq[1]
*310 user_irq[2]
*313 wb_clk_i
*314 wb_rst_i
*315 wbs_ack_o
*316 wbs_adr_i[0]
*317 wbs_adr_i[10]
*318 wbs_adr_i[11]
*319 wbs_adr_i[12]
*320 wbs_adr_i[13]
*321 wbs_adr_i[14]
*322 wbs_adr_i[15]
*323 wbs_adr_i[16]
*324 wbs_adr_i[17]
*325 wbs_adr_i[18]
*326 wbs_adr_i[19]
*327 wbs_adr_i[1]
*328 wbs_adr_i[20]
*329 wbs_adr_i[21]
*330 wbs_adr_i[22]
*331 wbs_adr_i[23]
*332 wbs_adr_i[24]
*333 wbs_adr_i[25]
*334 wbs_adr_i[26]
*335 wbs_adr_i[27]
*336 wbs_adr_i[28]
*337 wbs_adr_i[29]
*338 wbs_adr_i[2]
*339 wbs_adr_i[30]
*340 wbs_adr_i[31]
*341 wbs_adr_i[3]
*342 wbs_adr_i[4]
*343 wbs_adr_i[5]
*344 wbs_adr_i[6]
*345 wbs_adr_i[7]
*346 wbs_adr_i[8]
*347 wbs_adr_i[9]
*348 wbs_cyc_i
*349 wbs_dat_i[0]
*350 wbs_dat_i[10]
*351 wbs_dat_i[11]
*352 wbs_dat_i[12]
*353 wbs_dat_i[13]
*354 wbs_dat_i[14]
*355 wbs_dat_i[15]
*356 wbs_dat_i[16]
*357 wbs_dat_i[17]
*358 wbs_dat_i[18]
*359 wbs_dat_i[19]
*360 wbs_dat_i[1]
*361 wbs_dat_i[20]
*362 wbs_dat_i[21]
*363 wbs_dat_i[22]
*364 wbs_dat_i[23]
*365 wbs_dat_i[24]
*366 wbs_dat_i[25]
*367 wbs_dat_i[26]
*368 wbs_dat_i[27]
*369 wbs_dat_i[28]
*370 wbs_dat_i[29]
*371 wbs_dat_i[2]
*372 wbs_dat_i[30]
*373 wbs_dat_i[31]
*374 wbs_dat_i[3]
*375 wbs_dat_i[4]
*376 wbs_dat_i[5]
*377 wbs_dat_i[6]
*378 wbs_dat_i[7]
*379 wbs_dat_i[8]
*380 wbs_dat_i[9]
*381 wbs_dat_o[0]
*382 wbs_dat_o[10]
*383 wbs_dat_o[11]
*384 wbs_dat_o[12]
*385 wbs_dat_o[13]
*386 wbs_dat_o[14]
*387 wbs_dat_o[15]
*388 wbs_dat_o[16]
*389 wbs_dat_o[17]
*390 wbs_dat_o[18]
*391 wbs_dat_o[19]
*392 wbs_dat_o[1]
*393 wbs_dat_o[20]
*394 wbs_dat_o[21]
*395 wbs_dat_o[22]
*396 wbs_dat_o[23]
*397 wbs_dat_o[24]
*398 wbs_dat_o[25]
*399 wbs_dat_o[26]
*400 wbs_dat_o[27]
*401 wbs_dat_o[28]
*402 wbs_dat_o[29]
*403 wbs_dat_o[2]
*404 wbs_dat_o[30]
*405 wbs_dat_o[31]
*406 wbs_dat_o[3]
*407 wbs_dat_o[4]
*408 wbs_dat_o[5]
*409 wbs_dat_o[6]
*410 wbs_dat_o[7]
*411 wbs_dat_o[8]
*412 wbs_dat_o[9]
*413 wbs_sel_i[0]
*414 wbs_sel_i[1]
*415 wbs_sel_i[2]
*416 wbs_sel_i[3]
*417 wbs_stb_i
*418 wbs_we_i
*419 solo_squash_caravel_gf180

*PORTS
io_in[0] I
io_in[10] I
io_in[11] I
io_in[12] I
io_in[13] I
io_in[14] I
io_in[15] I
io_in[16] I
io_in[17] I
io_in[18] I
io_in[19] I
io_in[1] I
io_in[20] I
io_in[21] I
io_in[22] I
io_in[23] I
io_in[24] I
io_in[25] I
io_in[26] I
io_in[27] I
io_in[28] I
io_in[29] I
io_in[2] I
io_in[30] I
io_in[31] I
io_in[32] I
io_in[33] I
io_in[34] I
io_in[35] I
io_in[36] I
io_in[37] I
io_in[3] I
io_in[4] I
io_in[5] I
io_in[6] I
io_in[7] I
io_in[8] I
io_in[9] I
io_oeb[0] O
io_oeb[10] O
io_oeb[11] O
io_oeb[12] O
io_oeb[13] O
io_oeb[14] O
io_oeb[15] O
io_oeb[16] O
io_oeb[17] O
io_oeb[18] O
io_oeb[19] O
io_oeb[1] O
io_oeb[20] O
io_oeb[21] O
io_oeb[22] O
io_oeb[23] O
io_oeb[24] O
io_oeb[25] O
io_oeb[26] O
io_oeb[27] O
io_oeb[28] O
io_oeb[29] O
io_oeb[2] O
io_oeb[30] O
io_oeb[31] O
io_oeb[32] O
io_oeb[33] O
io_oeb[34] O
io_oeb[35] O
io_oeb[36] O
io_oeb[37] O
io_oeb[3] O
io_oeb[4] O
io_oeb[5] O
io_oeb[6] O
io_oeb[7] O
io_oeb[8] O
io_oeb[9] O
io_out[0] O
io_out[10] O
io_out[11] O
io_out[12] O
io_out[13] O
io_out[14] O
io_out[15] O
io_out[16] O
io_out[17] O
io_out[18] O
io_out[19] O
io_out[1] O
io_out[20] O
io_out[21] O
io_out[22] O
io_out[23] O
io_out[24] O
io_out[25] O
io_out[26] O
io_out[27] O
io_out[28] O
io_out[29] O
io_out[2] O
io_out[30] O
io_out[31] O
io_out[32] O
io_out[33] O
io_out[34] O
io_out[35] O
io_out[36] O
io_out[37] O
io_out[3] O
io_out[4] O
io_out[5] O
io_out[6] O
io_out[7] O
io_out[8] O
io_out[9] O
la_data_in[0] I
la_data_in[10] I
la_data_in[11] I
la_data_in[12] I
la_data_in[13] I
la_data_in[14] I
la_data_in[15] I
la_data_in[16] I
la_data_in[17] I
la_data_in[18] I
la_data_in[19] I
la_data_in[1] I
la_data_in[20] I
la_data_in[21] I
la_data_in[22] I
la_data_in[23] I
la_data_in[24] I
la_data_in[25] I
la_data_in[26] I
la_data_in[27] I
la_data_in[28] I
la_data_in[29] I
la_data_in[2] I
la_data_in[30] I
la_data_in[31] I
la_data_in[32] I
la_data_in[33] I
la_data_in[34] I
la_data_in[35] I
la_data_in[36] I
la_data_in[37] I
la_data_in[38] I
la_data_in[39] I
la_data_in[3] I
la_data_in[40] I
la_data_in[41] I
la_data_in[42] I
la_data_in[43] I
la_data_in[44] I
la_data_in[45] I
la_data_in[46] I
la_data_in[47] I
la_data_in[48] I
la_data_in[49] I
la_data_in[4] I
la_data_in[50] I
la_data_in[51] I
la_data_in[52] I
la_data_in[53] I
la_data_in[54] I
la_data_in[55] I
la_data_in[56] I
la_data_in[57] I
la_data_in[58] I
la_data_in[59] I
la_data_in[5] I
la_data_in[60] I
la_data_in[61] I
la_data_in[62] I
la_data_in[63] I
la_data_in[6] I
la_data_in[7] I
la_data_in[8] I
la_data_in[9] I
la_data_out[0] O
la_data_out[10] O
la_data_out[11] O
la_data_out[12] O
la_data_out[13] O
la_data_out[14] O
la_data_out[15] O
la_data_out[16] O
la_data_out[17] O
la_data_out[18] O
la_data_out[19] O
la_data_out[1] O
la_data_out[20] O
la_data_out[21] O
la_data_out[22] O
la_data_out[23] O
la_data_out[24] O
la_data_out[25] O
la_data_out[26] O
la_data_out[27] O
la_data_out[28] O
la_data_out[29] O
la_data_out[2] O
la_data_out[30] O
la_data_out[31] O
la_data_out[32] O
la_data_out[33] O
la_data_out[34] O
la_data_out[35] O
la_data_out[36] O
la_data_out[37] O
la_data_out[38] O
la_data_out[39] O
la_data_out[3] O
la_data_out[40] O
la_data_out[41] O
la_data_out[42] O
la_data_out[43] O
la_data_out[44] O
la_data_out[45] O
la_data_out[46] O
la_data_out[47] O
la_data_out[48] O
la_data_out[49] O
la_data_out[4] O
la_data_out[50] O
la_data_out[51] O
la_data_out[52] O
la_data_out[53] O
la_data_out[54] O
la_data_out[55] O
la_data_out[56] O
la_data_out[57] O
la_data_out[58] O
la_data_out[59] O
la_data_out[5] O
la_data_out[60] O
la_data_out[61] O
la_data_out[62] O
la_data_out[63] O
la_data_out[6] O
la_data_out[7] O
la_data_out[8] O
la_data_out[9] O
la_oenb[0] I
la_oenb[10] I
la_oenb[11] I
la_oenb[12] I
la_oenb[13] I
la_oenb[14] I
la_oenb[15] I
la_oenb[16] I
la_oenb[17] I
la_oenb[18] I
la_oenb[19] I
la_oenb[1] I
la_oenb[20] I
la_oenb[21] I
la_oenb[22] I
la_oenb[23] I
la_oenb[24] I
la_oenb[25] I
la_oenb[26] I
la_oenb[27] I
la_oenb[28] I
la_oenb[29] I
la_oenb[2] I
la_oenb[30] I
la_oenb[31] I
la_oenb[32] I
la_oenb[33] I
la_oenb[34] I
la_oenb[35] I
la_oenb[36] I
la_oenb[37] I
la_oenb[38] I
la_oenb[39] I
la_oenb[3] I
la_oenb[40] I
la_oenb[41] I
la_oenb[42] I
la_oenb[43] I
la_oenb[44] I
la_oenb[45] I
la_oenb[46] I
la_oenb[47] I
la_oenb[48] I
la_oenb[49] I
la_oenb[4] I
la_oenb[50] I
la_oenb[51] I
la_oenb[52] I
la_oenb[53] I
la_oenb[54] I
la_oenb[55] I
la_oenb[56] I
la_oenb[57] I
la_oenb[58] I
la_oenb[59] I
la_oenb[5] I
la_oenb[60] I
la_oenb[61] I
la_oenb[62] I
la_oenb[63] I
la_oenb[6] I
la_oenb[7] I
la_oenb[8] I
la_oenb[9] I
user_clock2 I
user_irq[0] O
user_irq[1] O
user_irq[2] O
wb_clk_i I
wb_rst_i I
wbs_ack_o O
wbs_adr_i[0] I
wbs_adr_i[10] I
wbs_adr_i[11] I
wbs_adr_i[12] I
wbs_adr_i[13] I
wbs_adr_i[14] I
wbs_adr_i[15] I
wbs_adr_i[16] I
wbs_adr_i[17] I
wbs_adr_i[18] I
wbs_adr_i[19] I
wbs_adr_i[1] I
wbs_adr_i[20] I
wbs_adr_i[21] I
wbs_adr_i[22] I
wbs_adr_i[23] I
wbs_adr_i[24] I
wbs_adr_i[25] I
wbs_adr_i[26] I
wbs_adr_i[27] I
wbs_adr_i[28] I
wbs_adr_i[29] I
wbs_adr_i[2] I
wbs_adr_i[30] I
wbs_adr_i[31] I
wbs_adr_i[3] I
wbs_adr_i[4] I
wbs_adr_i[5] I
wbs_adr_i[6] I
wbs_adr_i[7] I
wbs_adr_i[8] I
wbs_adr_i[9] I
wbs_cyc_i I
wbs_dat_i[0] I
wbs_dat_i[10] I
wbs_dat_i[11] I
wbs_dat_i[12] I
wbs_dat_i[13] I
wbs_dat_i[14] I
wbs_dat_i[15] I
wbs_dat_i[16] I
wbs_dat_i[17] I
wbs_dat_i[18] I
wbs_dat_i[19] I
wbs_dat_i[1] I
wbs_dat_i[20] I
wbs_dat_i[21] I
wbs_dat_i[22] I
wbs_dat_i[23] I
wbs_dat_i[24] I
wbs_dat_i[25] I
wbs_dat_i[26] I
wbs_dat_i[27] I
wbs_dat_i[28] I
wbs_dat_i[29] I
wbs_dat_i[2] I
wbs_dat_i[30] I
wbs_dat_i[31] I
wbs_dat_i[3] I
wbs_dat_i[4] I
wbs_dat_i[5] I
wbs_dat_i[6] I
wbs_dat_i[7] I
wbs_dat_i[8] I
wbs_dat_i[9] I
wbs_dat_o[0] O
wbs_dat_o[10] O
wbs_dat_o[11] O
wbs_dat_o[12] O
wbs_dat_o[13] O
wbs_dat_o[14] O
wbs_dat_o[15] O
wbs_dat_o[16] O
wbs_dat_o[17] O
wbs_dat_o[18] O
wbs_dat_o[19] O
wbs_dat_o[1] O
wbs_dat_o[20] O
wbs_dat_o[21] O
wbs_dat_o[22] O
wbs_dat_o[23] O
wbs_dat_o[24] O
wbs_dat_o[25] O
wbs_dat_o[26] O
wbs_dat_o[27] O
wbs_dat_o[28] O
wbs_dat_o[29] O
wbs_dat_o[2] O
wbs_dat_o[30] O
wbs_dat_o[31] O
wbs_dat_o[3] O
wbs_dat_o[4] O
wbs_dat_o[5] O
wbs_dat_o[6] O
wbs_dat_o[7] O
wbs_dat_o[8] O
wbs_dat_o[9] O
wbs_sel_i[0] I
wbs_sel_i[1] I
wbs_sel_i[2] I
wbs_sel_i[3] I
wbs_stb_i I
wbs_we_i I

*D_NET *2 0.232842
*CONN
*P io_in[10] I
*I *419:new_game_n I *D solo_squash_caravel_gf180
*CAP
1 io_in[10] 0.0677085
2 *419:new_game_n 0.000539171
3 *2:9 0.0117474
4 *2:7 0.0112082
5 *2:5 0.0677085
6 *419:new_game_n *86:7 2.71968e-05
7 *2:9 *40:9 0.0715928
8 *2:9 *63:11 0.00230997
*RES
1 io_in[10] *2:5 480.662 
2 *2:5 *2:7 4.5 
3 *2:7 *2:9 171.988 
4 *2:9 *419:new_game_n 8.034 
*END

*D_NET *3 0.221016
*CONN
*P io_in[11] I
*I *419:down_key_n I *D solo_squash_caravel_gf180
*CAP
1 io_in[11] 0.00155179
2 *419:down_key_n 9.90767e-05
3 *3:17 0.0319949
4 *3:15 0.0318958
5 *3:13 0.0661343
6 *3:11 0.0676861
7 *419:down_key_n *419:up_key_n 3.12222e-05
8 *3:11 *44:9 0.000377787
9 *3:17 *86:9 0.0212452
*RES
1 io_in[11] *3:11 19.602 
2 *3:11 *3:13 470.516 
3 *3:13 *3:15 4.5 
4 *3:15 *3:17 229.14 
5 *3:17 *419:down_key_n 5.298 
*END

*D_NET *4 0.351534
*CONN
*P io_in[12] I
*I *419:up_key_n I *D solo_squash_caravel_gf180
*CAP
1 io_in[12] 0.0676195
2 *419:up_key_n 0.000448082
3 *4:9 0.00732832
4 *4:7 0.00688024
5 *4:5 0.0676195
6 *4:9 *40:9 0.0896125
7 *4:9 *41:9 0.111994
8 *419:down_key_n *419:up_key_n 3.12222e-05
*RES
1 io_in[12] *4:5 480.358 
2 *4:5 *4:7 4.5 
3 *4:7 *4:9 286.9 
4 *4:9 *419:up_key_n 7.73 
*END

*D_NET *37 0.149859
*CONN
*P io_in[8] I
*I *419:ext_reset_n I *D solo_squash_caravel_gf180
*CAP
1 io_in[8] 0.000902349
2 *419:ext_reset_n 0.058387
3 *37:11 0.058387
4 *37:9 0.00443913
5 *37:7 0.00534148
6 *419:ext_reset_n *419:wb_rst_i 5.5921e-05
7 *37:9 *74:9 0.0185622
8 *37:9 *76:9 0.00378425
*RES
1 io_in[8] *37:7 10.466 
2 *37:7 *37:9 62.548 
3 *37:9 *37:11 4.5 
4 *37:11 *419:ext_reset_n 414.694 
*END

*D_NET *38 0.249767
*CONN
*P io_in[9] I
*I *419:pause_n I *D solo_squash_caravel_gf180
*CAP
1 io_in[9] 0.00129632
2 *419:pause_n 0.000321666
3 *38:13 0.0465714
4 *38:11 0.0462498
5 *38:9 0.0226132
6 *38:7 0.0239096
7 *419:pause_n *85:7 8.35439e-05
8 *38:9 io_oeb[6] 0.000866823
9 *38:9 *44:9 0.0121696
10 *38:13 *75:9 0.0956852
*RES
1 io_in[9] *38:7 11.53 
2 *38:7 *38:9 154.356 
3 *38:9 *38:11 4.5 
4 *38:11 *38:13 442.852 
5 *38:13 *419:pause_n 6.97 
*END

*D_NET *39 0.289451
*CONN
*P io_oeb[0] O
*I *419:io_oeb[0] O *D solo_squash_caravel_gf180
*CAP
1 io_oeb[0] 0.0584641
2 *419:io_oeb[0] 0.000563227
3 *39:11 0.0584641
4 *39:9 0.0231816
5 *39:7 0.0237448
6 *39:7 *53:11 5.5921e-05
7 *39:7 *62:19 0
8 *39:9 *61:9 0.102537
9 *39:9 *62:9 0.00751968
10 *39:9 *64:9 0.00533897
11 *39:9 *65:9 0.00503646
12 *39:9 *67:9 0.00454482
13 *39:9 *68:9 0
*RES
1 *419:io_oeb[0] *39:7 7.73 
2 *39:7 *39:9 355.756 
3 *39:9 *39:11 4.5 
4 *39:11 io_oeb[0] 417.43 
*END

*D_NET *40 0.313029
*CONN
*P io_oeb[10] O
*I *419:io_oeb[10] O *D solo_squash_caravel_gf180
*CAP
1 io_oeb[10] 0.0676742
2 *419:io_oeb[10] 0.000427593
3 *40:11 0.0676742
4 *40:9 0.00440733
5 *40:7 0.00483493
6 *40:7 *41:7 0.000120429
7 *40:9 *41:9 0.00420502
8 *40:9 *63:11 0.00173958
9 *40:9 *72:11 0.00074056
10 *2:9 *40:9 0.0715928
11 *4:9 *40:9 0.0896125
*RES
1 *419:io_oeb[10] *40:7 7.882 
2 *40:7 *40:9 237.196 
3 *40:9 *40:11 4.5 
4 *40:11 io_oeb[10] 480.51 
*END

*D_NET *41 0.293804
*CONN
*P io_oeb[11] O
*I *419:io_oeb[11] O *D solo_squash_caravel_gf180
*CAP
1 io_oeb[11] 0.0675989
2 *419:io_oeb[11] 0.000382692
3 *41:11 0.0675989
4 *41:9 0.0205358
5 *41:7 0.0209185
6 *41:7 *72:11 7.32268e-05
7 *41:9 *72:11 0.000376678
8 *4:9 *41:9 0.111994
9 *40:7 *41:7 0.000120429
10 *40:9 *41:9 0.00420502
*RES
1 *419:io_oeb[11] *41:7 7.578 
2 *41:7 *41:9 289.94 
3 *41:9 *41:11 4.5 
4 *41:11 io_oeb[11] 480.206 
*END

*D_NET *42 0.346337
*CONN
*P io_oeb[12] O
*I *419:io_oeb[12] O *D solo_squash_caravel_gf180
*CAP
1 io_oeb[12] 0.000964261
2 *419:io_oeb[12] 0.0713833
3 *42:9 0.0126746
4 *42:7 0.0117103
5 *42:5 0.0713833
6 *42:5 *55:11 4.02205e-05
7 *42:5 *60:11 5.68128e-05
8 *42:9 *76:9 0.0554298
9 *42:9 *81:9 0.122695
*RES
1 *419:io_oeb[12] *42:5 414.238 
2 *42:5 *42:7 4.5 
3 *42:7 *42:9 294.5 
4 *42:9 io_oeb[12] 10.922 
*END

*D_NET *43 0.43319
*CONN
*P io_oeb[13] O
*I *419:io_oeb[13] O *D solo_squash_caravel_gf180
*CAP
1 io_oeb[13] 0.00100554
2 *419:io_oeb[13] 0.0503182
3 *43:9 0.00327192
4 *43:7 0.00226638
5 *43:5 0.0503182
6 *43:5 *48:5 0.00287376
7 *43:5 *83:5 0.0141513
8 *43:9 io_oeb[6] 0.00226136
9 *43:9 *44:9 0.000395822
10 *43:9 *76:9 0.00082031
11 *43:9 *81:9 0.149382
12 *43:9 *82:9 0.156125
*RES
1 *419:io_oeb[13] *43:5 413.934 
2 *43:5 *43:7 4.5 
3 *43:7 *43:9 382.052 
4 *43:9 io_oeb[13] 11.226 
*END

*D_NET *44 0.368575
*CONN
*P io_oeb[14] O
*I *419:io_oeb[14] O *D solo_squash_caravel_gf180
*CAP
1 io_oeb[14] 0.00104681
2 *419:io_oeb[14] 0.0476867
3 *44:9 0.0327145
4 *44:7 0.0316677
5 *44:5 0.0476867
6 *44:5 *45:5 0.0130275
7 *44:5 *46:5 0.00961814
8 *44:9 io_oeb[6] 0.00111465
9 *44:9 *82:9 0.171069
10 *3:11 *44:9 0.000377787
11 *38:9 *44:9 0.0121696
12 *43:9 *44:9 0.000395822
*RES
1 *419:io_oeb[14] *44:5 413.63 
2 *44:5 *44:7 4.5 
3 *44:7 *44:9 433.124 
4 *44:9 io_oeb[14] 11.53 
*END

*D_NET *45 0.227676
*CONN
*P io_oeb[15] O
*I *419:io_oeb[15] O *D solo_squash_caravel_gf180
*CAP
1 io_oeb[15] 0.0644657
2 *419:io_oeb[15] 0.039732
3 *45:7 0.0644657
4 *45:5 0.039732
5 *45:5 *47:5 0.00625312
6 *44:5 *45:5 0.0130275
*RES
1 *419:io_oeb[15] *45:5 345.838 
2 *45:5 *45:7 4.5 
3 *45:7 io_oeb[15] 441.75 
*END

*D_NET *46 0.202662
*CONN
*P io_oeb[16] O
*I *419:io_oeb[16] O *D solo_squash_caravel_gf180
*CAP
1 io_oeb[16] 0.0647666
2 *419:io_oeb[16] 0.0303198
3 *46:7 0.0647666
4 *46:5 0.0303198
5 *46:5 *48:5 0.00287132
6 *44:5 *46:5 0.00961814
*RES
1 *419:io_oeb[16] *46:5 256.006 
2 *46:5 *46:7 4.5 
3 *46:7 io_oeb[16] 443.574 
*END

*D_NET *47 0.176532
*CONN
*P io_oeb[17] O
*I *419:io_oeb[17] O *D solo_squash_caravel_gf180
*CAP
1 io_oeb[17] 0.0643473
2 *419:io_oeb[17] 0.0176666
3 *47:7 0.0643473
4 *47:5 0.0176666
5 *47:5 *81:5 0.00625068
6 *45:5 *47:5 0.00625312
*RES
1 *419:io_oeb[17] *47:5 166.326 
2 *47:5 *47:7 4.5 
3 *47:7 io_oeb[17] 440.838 
*END

*D_NET *48 0.151827
*CONN
*P io_oeb[18] O
*I *419:io_oeb[18] O *D solo_squash_caravel_gf180
*CAP
1 io_oeb[18] 0.0649362
2 *419:io_oeb[18] 0.00810499
3 *48:7 0.0649362
4 *48:5 0.00810499
5 *43:5 *48:5 0.00287376
6 *46:5 *48:5 0.00287132
*RES
1 *419:io_oeb[18] *48:5 76.342 
2 *48:5 *48:7 4.5 
3 *48:7 io_oeb[18] 444.486 
*END

*D_NET *49 0.164469
*CONN
*P io_oeb[19] O
*I *419:io_oeb[19] O *D solo_squash_caravel_gf180
*CAP
1 io_oeb[19] 0.0591618
2 *419:io_oeb[19] 0.000149324
3 *49:15 0.060271
4 *49:9 0.00303555
5 *49:7 0.00207565
6 *49:9 *51:9 0.0208641
7 *49:9 *52:11 0.0161872
8 *49:15 *51:13 0.00272253
9 *49:15 *52:17 1.62858e-06
*RES
1 *419:io_oeb[19] *49:7 5.146 
2 *49:7 *49:9 56.164 
3 *49:9 *49:15 22.604 
4 *49:15 io_oeb[19] 405.118 
*END

*D_NET *50 0.192406
*CONN
*P io_oeb[1] O
*I *419:io_oeb[1] O *D solo_squash_caravel_gf180
*CAP
1 io_oeb[1] 0.0607334
2 *419:io_oeb[1] 0.0354695
3 *50:7 0.0607334
4 *50:5 0.0354695
*RES
1 *419:io_oeb[1] *50:5 242.782 
2 *50:5 *50:7 4.5 
3 *50:7 io_oeb[1] 432.478 
*END

*D_NET *51 0.20255
*CONN
*P io_oeb[20] O
*I *419:io_oeb[20] O *D solo_squash_caravel_gf180
*CAP
1 io_oeb[20] 0.0591414
2 *419:io_oeb[20] 0.000195659
3 *51:15 0.0591414
4 *51:13 0.00693231
5 *51:11 0.00693231
6 *51:9 0.00525845
7 *51:7 0.00545411
8 *51:13 *52:17 0.00360414
9 *51:13 *52:19 0.0323031
10 *49:9 *51:9 0.0208641
11 *49:15 *51:13 0.00272253
*RES
1 *419:io_oeb[20] *51:7 5.146 
2 *51:7 *51:9 54.948 
3 *51:9 *51:11 4.5 
4 *51:11 *51:13 103.284 
5 *51:13 *51:15 4.5 
6 *51:15 io_oeb[20] 405.422 
*END

*D_NET *52 0.22055
*CONN
*P io_oeb[21] O
*I *419:io_oeb[21] O *D solo_squash_caravel_gf180
*CAP
1 io_oeb[21] 0.0591633
2 *419:io_oeb[21] 0.00441378
3 *52:21 0.0591633
4 *52:19 0.0181924
5 *52:17 0.0204002
6 *52:11 0.00662156
7 *52:11 *87:7 1.68738e-05
8 *52:17 *62:19 0.000482485
9 *49:9 *52:11 0.0161872
10 *49:15 *52:17 1.62858e-06
11 *51:13 *52:17 0.00360414
12 *51:13 *52:19 0.0323031
*RES
1 *419:io_oeb[21] *52:11 48.01 
2 *52:11 *52:17 30.416 
3 *52:17 *52:19 167.96 
4 *52:19 *52:21 4.5 
5 *52:21 io_oeb[21] 405.574 
*END

*D_NET *53 0.283263
*CONN
*P io_oeb[22] O
*I *419:io_oeb[22] O *D solo_squash_caravel_gf180
*CAP
1 io_oeb[22] 0.000999175
2 *419:io_oeb[22] 0.000863102
3 *53:21 0.017396
4 *53:19 0.0163968
5 *53:17 0.057618
6 *53:15 0.057618
7 *53:13 0.0034377
8 *53:11 0.00430081
9 *53:11 *54:9 0.00263682
10 *53:11 *60:11 0.000427251
11 *53:11 *61:7 5.68128e-05
12 *53:13 *54:13 0.0193398
13 *53:17 *57:7 7.45328e-07
14 *53:21 *54:21 0.0968983
15 *53:21 *86:13 0.00521806
16 *39:7 *53:11 5.5921e-05
*RES
1 *419:io_oeb[22] *53:11 17.778 
2 *53:11 *53:13 46.892 
3 *53:13 *53:15 4.5 
4 *53:15 *53:17 394.668 
5 *53:17 *53:19 4.5 
6 *53:19 *53:21 238.108 
7 *53:21 io_oeb[22] 11.378 
*END

*D_NET *54 0.339825
*CONN
*P io_oeb[23] O
*I *419:io_oeb[23] O *D solo_squash_caravel_gf180
*CAP
1 io_oeb[23] 0.00102104
2 *419:io_oeb[23] 0.00042519
3 *54:21 0.0301616
4 *54:19 0.0291405
5 *54:17 0.0575618
6 *54:15 0.0575618
7 *54:13 0.00113093
8 *54:11 0.00113093
9 *54:9 0.00579708
10 *54:7 0.00622227
11 *54:7 *56:7 8.65884e-06
12 *54:9 *55:11 0.000220992
13 *54:9 *67:9 0.00222654
14 *54:9 *314:13 0.0102503
15 *54:13 *55:15 0.0166137
16 *54:13 *57:9 0.00147702
17 *53:11 *54:9 0.00263682
18 *53:13 *54:13 0.0193398
19 *53:21 *54:21 0.0968983
*RES
1 *419:io_oeb[23] *54:7 6.818 
2 *54:7 *54:9 54.188 
3 *54:9 *54:11 4.5 
4 *54:11 *54:13 51.604 
5 *54:13 *54:15 4.5 
6 *54:15 *54:17 394.364 
7 *54:17 *54:19 4.5 
8 *54:19 *54:21 323.38 
9 *54:21 io_oeb[23] 11.53 
*END

*D_NET *55 0.224965
*CONN
*P io_oeb[24] O
*I *419:io_oeb[24] O *D solo_squash_caravel_gf180
*CAP
1 io_oeb[24] 0.0491586
2 *419:io_oeb[24] 0.00103763
3 *55:19 0.0491586
4 *55:17 0.0484643
5 *55:15 0.0513826
6 *55:11 0.0039559
7 *55:11 *60:11 0.00392097
8 *55:11 *62:9 0.000551496
9 *55:11 *65:7 5.7682e-05
10 *55:11 *65:9 0.000402024
11 *42:5 *55:11 4.02205e-05
12 *54:9 *55:11 0.000220992
13 *54:13 *55:15 0.0166137
*RES
1 *419:io_oeb[24] *55:11 20.97 
2 *55:11 *55:15 44.704 
3 *55:15 *55:17 351.348 
4 *55:17 *55:19 4.5 
5 *55:19 io_oeb[24] 349.486 
*END

*D_NET *56 0.361479
*CONN
*P io_oeb[25] O
*I *419:io_oeb[25] O *D solo_squash_caravel_gf180
*CAP
1 io_oeb[25] 0.000717091
2 *419:io_oeb[25] 0.000168351
3 *56:17 0.0296362
4 *56:15 0.0289191
5 *56:13 0.0276598
6 *56:11 0.0276598
7 *56:9 0.0169767
8 *56:7 0.017145
9 *56:7 *76:5 1.18009e-05
10 *56:9 *60:11 0
11 *56:9 *67:9 0
12 *56:9 *68:9 0
13 *56:13 io_oeb[30] 0.157832
14 *56:17 *57:13 0.022203
15 *56:17 *58:9 0.00853199
16 *56:17 *59:9 0.0240098
17 *54:7 *56:7 8.65884e-06
*RES
1 *419:io_oeb[25] *56:7 5.298 
2 *56:7 *56:9 61.94 
3 *56:9 *56:11 4.5 
4 *56:11 *56:13 382.964 
5 *56:13 *56:15 4.5 
6 *56:15 *56:17 287.204 
7 *56:17 io_oeb[25] 9.706 
*END

*D_NET *57 0.189474
*CONN
*P io_oeb[26] O
*I *419:io_oeb[26] O *D solo_squash_caravel_gf180
*CAP
1 io_oeb[26] 0.000722323
2 *419:io_oeb[26] 0.000519722
3 *57:13 0.0352728
4 *57:11 0.0345505
5 *57:9 0.047104
6 *57:7 0.0476237
7 *53:17 *57:7 7.45328e-07
8 *54:13 *57:9 0.00147702
9 *56:17 *57:13 0.022203
*RES
1 *419:io_oeb[26] *57:7 7.882 
2 *57:7 *57:9 336.604 
3 *57:9 *57:11 4.5 
4 *57:11 *57:13 236.74 
5 *57:13 io_oeb[26] 9.706 
*END

*D_NET *58 0.187842
*CONN
*P io_oeb[27] O
*I *419:io_oeb[27] O *D solo_squash_caravel_gf180
*CAP
1 io_oeb[27] 0.000799643
2 *419:io_oeb[27] 0.0400418
3 *58:9 0.0150732
4 *58:7 0.0142736
5 *58:5 0.0400418
6 *58:5 *66:5 0.0122513
7 *58:9 *59:9 0.0568283
8 *56:17 *58:9 0.00853199
*RES
1 *419:io_oeb[27] *58:5 325.166 
2 *58:5 *58:7 4.5 
3 *58:7 *58:9 194.028 
4 *58:9 io_oeb[27] 10.162 
*END

*D_NET *59 0.203217
*CONN
*P io_oeb[28] O
*I *419:io_oeb[28] O *D solo_squash_caravel_gf180
*CAP
1 io_oeb[28] 0.000779006
2 *419:io_oeb[28] 0.0399401
3 *59:9 0.00590961
4 *59:7 0.00513061
5 *59:5 0.0399401
6 *59:5 *69:5 0.0122751
7 *59:5 *72:11 0.000119057
8 *59:9 *66:9 0.018285
9 *56:17 *59:9 0.0240098
10 *58:9 *59:9 0.0568283
*RES
1 *419:io_oeb[28] *59:5 325.318 
2 *59:5 *59:7 4.5 
3 *59:7 *59:9 179.436 
4 *59:9 io_oeb[28] 10.01 
*END

*D_NET *60 0.135137
*CONN
*P io_oeb[29] O
*I *419:io_oeb[29] O *D solo_squash_caravel_gf180
*CAP
1 io_oeb[29] 0.00146629
2 *419:io_oeb[29] 0.00288628
3 *60:17 0.00882678
4 *60:15 0.0073605
5 *60:13 0.0534656
6 *60:11 0.0563519
7 *60:11 *65:9 0.000314195
8 *60:11 *67:7 5.99511e-05
9 *42:5 *60:11 5.68128e-05
10 *53:11 *60:11 0.000427251
11 *55:11 *60:11 0.00392097
12 *56:9 *60:11 0
*RES
1 *419:io_oeb[29] *60:11 33.738 
2 *60:11 *60:13 379.772 
3 *60:13 *60:15 4.5 
4 *60:15 *60:17 52.972 
5 *60:17 io_oeb[29] 14.266 
*END

*D_NET *61 0.255666
*CONN
*P io_oeb[2] O
*I *419:io_oeb[2] O *D solo_squash_caravel_gf180
*CAP
1 io_oeb[2] 0.0584434
2 *419:io_oeb[2] 0.000567392
3 *61:11 0.0584434
4 *61:9 0.0174956
5 *61:7 0.018063
6 *61:7 *65:7 5.91469e-05
7 *39:9 *61:9 0.102537
8 *53:11 *61:7 5.68128e-05
*RES
1 *419:io_oeb[2] *61:7 7.882 
2 *61:7 *61:9 246.468 
3 *61:9 *61:11 4.5 
4 *61:11 io_oeb[2] 417.278 
*END

*D_NET *62 0.249699
*CONN
*P io_oeb[30] O
*I *419:io_oeb[30] O *D solo_squash_caravel_gf180
*CAP
1 io_oeb[30] 0.0280224
2 *419:io_oeb[30] 0.000442965
3 *62:19 0.0303472
4 *62:9 0.00339936
5 *62:7 0.00151749
6 *62:7 *73:5 7.11894e-05
7 *62:7 *74:5 6.80473e-05
8 *62:9 *64:9 0.0185424
9 *62:9 *65:9 0.000902795
10 *39:7 *62:19 0
11 *39:9 *62:9 0.00751968
12 *52:17 *62:19 0.000482485
13 *55:11 *62:9 0.000551496
14 *56:13 io_oeb[30] 0.157832
*RES
1 *419:io_oeb[30] *62:7 7.274 
2 *62:7 *62:9 53.124 
3 *62:9 *62:19 28.852 
4 *62:19 io_oeb[30] 386.27 
*END

*D_NET *63 0.125974
*CONN
*P io_oeb[31] O
*I *419:io_oeb[31] O *D solo_squash_caravel_gf180
*CAP
1 io_oeb[31] 0.0562499
2 *419:io_oeb[31] 0.0006609
3 *63:11 0.0602573
4 *63:7 0.00466833
5 *63:7 *419:wb_clk_i 8.8238e-05
6 *2:9 *63:11 0.00230997
7 *40:9 *63:11 0.00173958
*RES
1 *419:io_oeb[31] *63:7 8.642 
2 *63:7 *63:11 45.92 
3 *63:11 io_oeb[31] 326.686 
*END

*D_NET *64 0.202053
*CONN
*P io_oeb[32] O
*I *419:io_oeb[32] O *D solo_squash_caravel_gf180
*CAP
1 io_oeb[32] 0.0672429
2 *419:io_oeb[32] 0.000435764
3 *64:11 0.0672429
4 *64:9 0.00159282
5 *64:7 0.00202858
6 *64:7 *67:7 6.1868e-05
7 *64:7 *68:7 5.68128e-05
8 *64:9 *65:9 0.03951
9 *39:9 *64:9 0.00533897
10 *62:9 *64:9 0.0185424
*RES
1 *419:io_oeb[32] *64:7 7.122 
2 *64:7 *64:9 95.228 
3 *64:9 *64:11 4.5 
4 *64:11 io_oeb[32] 389.918 
*END

*D_NET *65 0.225397
*CONN
*P io_oeb[33] O
*I *419:io_oeb[33] O *D solo_squash_caravel_gf180
*CAP
1 io_oeb[33] 0.0548319
2 *419:io_oeb[33] 0.000410609
3 *65:11 0.0548319
4 *65:9 0.00241083
5 *65:7 0.00282144
6 *65:9 *67:9 0.0638081
7 *39:9 *65:9 0.00503646
8 *55:11 *65:7 5.7682e-05
9 *55:11 *65:9 0.000402024
10 *60:11 *65:9 0.000314195
11 *61:7 *65:7 5.91469e-05
12 *62:9 *65:9 0.000902795
13 *64:9 *65:9 0.03951
*RES
1 *419:io_oeb[33] *65:7 6.97 
2 *65:7 *65:9 157.244 
3 *65:9 *65:11 4.5 
4 *65:11 io_oeb[33] 389.766 
*END

*D_NET *66 0.211021
*CONN
*P io_oeb[34] O
*I *419:io_oeb[34] O *D solo_squash_caravel_gf180
*CAP
1 io_oeb[34] 0.000922211
2 *419:io_oeb[34] 0.0401104
3 *66:9 0.0155438
4 *66:7 0.0146216
5 *66:5 0.0401104
6 *66:9 *69:9 0.0691766
7 *58:5 *66:5 0.0122513
8 *59:9 *66:9 0.018285
*RES
1 *419:io_oeb[34] *66:5 325.47 
2 *66:5 *66:7 4.5 
3 *66:7 *66:9 208.924 
4 *66:9 io_oeb[34] 9.858 
*END

*D_NET *67 0.316179
*CONN
*P io_oeb[35] O
*I *419:io_oeb[35] O *D solo_squash_caravel_gf180
*CAP
1 io_oeb[35] 0.0547685
2 *419:io_oeb[35] 0.000358895
3 *67:11 0.0547685
4 *67:9 0.00688933
5 *67:7 0.00724823
6 *67:9 *68:9 0.110888
7 *67:9 *115:13 0.0105563
8 *39:9 *67:9 0.00454482
9 *54:9 *67:9 0.00222654
10 *56:9 *67:9 0
11 *60:11 *67:7 5.99511e-05
12 *64:7 *67:7 6.1868e-05
13 *65:9 *67:9 0.0638081
*RES
1 *419:io_oeb[35] *67:7 6.818 
2 *67:7 *67:9 268.508 
3 *67:9 *67:11 4.5 
4 *67:11 io_oeb[35] 389.614 
*END

*D_NET *68 0.306464
*CONN
*P io_oeb[36] O
*I *419:io_oeb[36] O *D solo_squash_caravel_gf180
*CAP
1 io_oeb[36] 0.0547133
2 *419:io_oeb[36] 0.000363376
3 *68:11 0.0547133
4 *68:9 0.0274788
5 *68:7 0.0278422
6 *68:9 *115:13 0.00212063
7 *68:9 *314:13 0.0282877
8 *39:9 *68:9 0
9 *56:9 *68:9 0
10 *64:7 *68:7 5.68128e-05
11 *67:9 *68:9 0.110888
*RES
1 *419:io_oeb[36] *68:7 6.666 
2 *68:7 *68:9 324.14 
3 *68:9 *68:11 4.5 
4 *68:11 io_oeb[36] 389.462 
*END

*D_NET *69 0.233933
*CONN
*P io_oeb[37] O