*SPEF "ieee 1481-1999"
*DESIGN "user_project_wrapper"
*DATE "11:11:11 Fri 11 11, 1111"
*VENDOR "OpenRCX"
*PROGRAM "Parallel Extraction"
*VERSION "1.0"
*DESIGN_FLOW "NAME_SCOPE LOCAL" "PIN_CAP NONE"
*DIVIDER /
*DELIMITER :
*BUS_DELIMITER []
*T_UNIT 1 NS
*C_UNIT 1 PF
*R_UNIT 1 OHM
*L_UNIT 1 HENRY

*NAME_MAP
*1 io_in[0]
*2 io_in[10]
*3 io_in[11]
*4 io_in[12]
*5 io_in[13]
*6 io_in[14]
*7 io_in[15]
*8 io_in[16]
*9 io_in[17]
*10 io_in[18]
*11 io_in[19]
*12 io_in[1]
*13 io_in[20]
*14 io_in[21]
*15 io_in[22]
*16 io_in[23]
*17 io_in[24]
*18 io_in[25]
*19 io_in[26]
*20 io_in[27]
*21 io_in[28]
*22 io_in[29]
*23 io_in[2]
*24 io_in[30]
*25 io_in[31]
*26 io_in[32]
*27 io_in[33]
*28 io_in[34]
*29 io_in[35]
*30 io_in[36]
*31 io_in[37]
*32 io_in[3]
*33 io_in[4]
*34 io_in[5]
*35 io_in[6]
*36 io_in[7]
*37 io_in[8]
*38 io_in[9]
*39 io_oeb[0]
*40 io_oeb[10]
*41 io_oeb[11]
*42 io_oeb[12]
*43 io_oeb[13]
*44 io_oeb[14]
*45 io_oeb[15]
*46 io_oeb[16]
*47 io_oeb[17]
*48 io_oeb[18]
*49 io_oeb[19]
*50 io_oeb[1]
*51 io_oeb[20]
*52 io_oeb[21]
*53 io_oeb[22]
*54 io_oeb[23]
*55 io_oeb[24]
*56 io_oeb[25]
*57 io_oeb[26]
*58 io_oeb[27]
*59 io_oeb[28]
*60 io_oeb[29]
*61 io_oeb[2]
*62 io_oeb[30]
*63 io_oeb[31]
*64 io_oeb[32]
*65 io_oeb[33]
*66 io_oeb[34]
*67 io_oeb[35]
*68 io_oeb[36]
*69 io_oeb[37]
*70 io_oeb[3]
*71 io_oeb[4]
*72 io_oeb[5]
*73 io_oeb[6]
*74 io_oeb[7]
*75 io_oeb[8]
*76 io_oeb[9]
*77 io_out[0]
*78 io_out[10]
*79 io_out[11]
*80 io_out[12]
*81 io_out[13]
*82 io_out[14]
*83 io_out[15]
*84 io_out[16]
*85 io_out[17]
*86 io_out[18]
*87 io_out[19]
*88 io_out[1]
*89 io_out[20]
*90 io_out[21]
*91 io_out[22]
*92 io_out[23]
*93 io_out[24]
*94 io_out[25]
*95 io_out[26]
*96 io_out[27]
*97 io_out[28]
*98 io_out[29]
*99 io_out[2]
*100 io_out[30]
*101 io_out[31]
*102 io_out[32]
*103 io_out[33]
*104 io_out[34]
*105 io_out[35]
*106 io_out[36]
*107 io_out[37]
*108 io_out[3]
*109 io_out[4]
*110 io_out[5]
*111 io_out[6]
*112 io_out[7]
*113 io_out[8]
*114 io_out[9]
*115 la_data_in[0]
*116 la_data_in[10]
*117 la_data_in[11]
*118 la_data_in[12]
*119 la_data_in[13]
*120 la_data_in[14]
*121 la_data_in[15]
*122 la_data_in[16]
*123 la_data_in[17]
*124 la_data_in[18]
*125 la_data_in[19]
*126 la_data_in[1]
*127 la_data_in[20]
*128 la_data_in[21]
*129 la_data_in[22]
*130 la_data_in[23]
*131 la_data_in[24]
*132 la_data_in[25]
*133 la_data_in[26]
*134 la_data_in[27]
*135 la_data_in[28]
*136 la_data_in[29]
*137 la_data_in[2]
*138 la_data_in[30]
*139 la_data_in[31]
*140 la_data_in[32]
*141 la_data_in[33]
*142 la_data_in[34]
*143 la_data_in[35]
*144 la_data_in[36]
*145 la_data_in[37]
*146 la_data_in[38]
*147 la_data_in[39]
*148 la_data_in[3]
*149 la_data_in[40]
*150 la_data_in[41]
*151 la_data_in[42]
*152 la_data_in[43]
*153 la_data_in[44]
*154 la_data_in[45]
*155 la_data_in[46]
*156 la_data_in[47]
*157 la_data_in[48]
*158 la_data_in[49]
*159 la_data_in[4]
*160 la_data_in[50]
*161 la_data_in[51]
*162 la_data_in[52]
*163 la_data_in[53]
*164 la_data_in[54]
*165 la_data_in[55]
*166 la_data_in[56]
*167 la_data_in[57]
*168 la_data_in[58]
*169 la_data_in[59]
*170 la_data_in[5]
*171 la_data_in[60]
*172 la_data_in[61]
*173 la_data_in[62]
*174 la_data_in[63]
*175 la_data_in[6]
*176 la_data_in[7]
*177 la_data_in[8]
*178 la_data_in[9]
*179 la_data_out[0]
*180 la_data_out[10]
*181 la_data_out[11]
*182 la_data_out[12]
*183 la_data_out[13]
*184 la_data_out[14]
*185 la_data_out[15]
*186 la_data_out[16]
*187 la_data_out[17]
*188 la_data_out[18]
*189 la_data_out[19]
*190 la_data_out[1]
*191 la_data_out[20]
*192 la_data_out[21]
*193 la_data_out[22]
*194 la_data_out[23]
*195 la_data_out[24]
*196 la_data_out[25]
*197 la_data_out[26]
*198 la_data_out[27]
*199 la_data_out[28]
*200 la_data_out[29]
*201 la_data_out[2]
*202 la_data_out[30]
*203 la_data_out[31]
*204 la_data_out[32]
*205 la_data_out[33]
*206 la_data_out[34]
*207 la_data_out[35]
*208 la_data_out[36]
*209 la_data_out[37]
*210 la_data_out[38]
*211 la_data_out[39]
*212 la_data_out[3]
*213 la_data_out[40]
*214 la_data_out[41]
*215 la_data_out[42]
*216 la_data_out[43]
*217 la_data_out[44]
*218 la_data_out[45]
*219 la_data_out[46]
*220 la_data_out[47]
*221 la_data_out[48]
*222 la_data_out[49]
*223 la_data_out[4]
*224 la_data_out[50]
*225 la_data_out[51]
*226 la_data_out[52]
*227 la_data_out[53]
*228 la_data_out[54]
*229 la_data_out[55]
*230 la_data_out[56]
*231 la_data_out[57]
*232 la_data_out[58]
*233 la_data_out[59]
*234 la_data_out[5]
*235 la_data_out[60]
*236 la_data_out[61]
*237 la_data_out[62]
*238 la_data_out[63]
*239 la_data_out[6]
*240 la_data_out[7]
*241 la_data_out[8]
*242 la_data_out[9]
*243 la_oenb[0]
*244 la_oenb[10]
*245 la_oenb[11]
*246 la_oenb[12]
*247 la_oenb[13]
*248 la_oenb[14]
*249 la_oenb[15]
*250 la_oenb[16]
*251 la_oenb[17]
*252 la_oenb[18]
*253 la_oenb[19]
*254 la_oenb[1]
*255 la_oenb[20]
*256 la_oenb[21]
*257 la_oenb[22]
*258 la_oenb[23]
*259 la_oenb[24]
*260 la_oenb[25]
*261 la_oenb[26]
*262 la_oenb[27]
*263 la_oenb[28]
*264 la_oenb[29]
*265 la_oenb[2]
*266 la_oenb[30]
*267 la_oenb[31]
*268 la_oenb[32]
*269 la_oenb[33]
*270 la_oenb[34]
*271 la_oenb[35]
*272 la_oenb[36]
*273 la_oenb[37]
*274 la_oenb[38]
*275 la_oenb[39]
*276 la_oenb[3]
*277 la_oenb[40]
*278 la_oenb[41]
*279 la_oenb[42]
*280 la_oenb[43]
*281 la_oenb[44]
*282 la_oenb[45]
*283 la_oenb[46]
*284 la_oenb[47]
*285 la_oenb[48]
*286 la_oenb[49]
*287 la_oenb[4]
*288 la_oenb[50]
*289 la_oenb[51]
*290 la_oenb[52]
*291 la_oenb[53]
*292 la_oenb[54]
*293 la_oenb[55]
*294 la_oenb[56]
*295 la_oenb[57]
*296 la_oenb[58]
*297 la_oenb[59]
*298 la_oenb[5]
*299 la_oenb[60]
*300 la_oenb[61]
*301 la_oenb[62]
*302 la_oenb[63]
*303 la_oenb[6]
*304 la_oenb[7]
*305 la_oenb[8]
*306 la_oenb[9]
*307 user_clock2
*308 user_irq[0]
*309 user_irq[1]
*310 user_irq[2]
*313 wb_clk_i
*314 wb_rst_i
*315 wbs_ack_o
*316 wbs_adr_i[0]
*317 wbs_adr_i[10]
*318 wbs_adr_i[11]
*319 wbs_adr_i[12]
*320 wbs_adr_i[13]
*321 wbs_adr_i[14]
*322 wbs_adr_i[15]
*323 wbs_adr_i[16]
*324 wbs_adr_i[17]
*325 wbs_adr_i[18]
*326 wbs_adr_i[19]
*327 wbs_adr_i[1]
*328 wbs_adr_i[20]
*329 wbs_adr_i[21]
*330 wbs_adr_i[22]
*331 wbs_adr_i[23]
*332 wbs_adr_i[24]
*333 wbs_adr_i[25]
*334 wbs_adr_i[26]
*335 wbs_adr_i[27]
*336 wbs_adr_i[28]
*337 wbs_adr_i[29]
*338 wbs_adr_i[2]
*339 wbs_adr_i[30]
*340 wbs_adr_i[31]
*341 wbs_adr_i[3]
*342 wbs_adr_i[4]
*343 wbs_adr_i[5]
*344 wbs_adr_i[6]
*345 wbs_adr_i[7]
*346 wbs_adr_i[8]
*347 wbs_adr_i[9]
*348 wbs_cyc_i
*349 wbs_dat_i[0]
*350 wbs_dat_i[10]
*351 wbs_dat_i[11]
*352 wbs_dat_i[12]
*353 wbs_dat_i[13]
*354 wbs_dat_i[14]
*355 wbs_dat_i[15]
*356 wbs_dat_i[16]
*357 wbs_dat_i[17]
*358 wbs_dat_i[18]
*359 wbs_dat_i[19]
*360 wbs_dat_i[1]
*361 wbs_dat_i[20]
*362 wbs_dat_i[21]
*363 wbs_dat_i[22]
*364 wbs_dat_i[23]
*365 wbs_dat_i[24]
*366 wbs_dat_i[25]
*367 wbs_dat_i[26]
*368 wbs_dat_i[27]
*369 wbs_dat_i[28]
*370 wbs_dat_i[29]
*371 wbs_dat_i[2]
*372 wbs_dat_i[30]
*373 wbs_dat_i[31]
*374 wbs_dat_i[3]
*375 wbs_dat_i[4]
*376 wbs_dat_i[5]
*377 wbs_dat_i[6]
*378 wbs_dat_i[7]
*379 wbs_dat_i[8]
*380 wbs_dat_i[9]
*381 wbs_dat_o[0]
*382 wbs_dat_o[10]
*383 wbs_dat_o[11]
*384 wbs_dat_o[12]
*385 wbs_dat_o[13]
*386 wbs_dat_o[14]
*387 wbs_dat_o[15]
*388 wbs_dat_o[16]
*389 wbs_dat_o[17]
*390 wbs_dat_o[18]
*391 wbs_dat_o[19]
*392 wbs_dat_o[1]
*393 wbs_dat_o[20]
*394 wbs_dat_o[21]
*395 wbs_dat_o[22]
*396 wbs_dat_o[23]
*397 wbs_dat_o[24]
*398 wbs_dat_o[25]
*399 wbs_dat_o[26]
*400 wbs_dat_o[27]
*401 wbs_dat_o[28]
*402 wbs_dat_o[29]
*403 wbs_dat_o[2]
*404 wbs_dat_o[30]
*405 wbs_dat_o[31]
*406 wbs_dat_o[3]
*407 wbs_dat_o[4]
*408 wbs_dat_o[5]
*409 wbs_dat_o[6]
*410 wbs_dat_o[7]
*411 wbs_dat_o[8]
*412 wbs_dat_o[9]
*413 wbs_sel_i[0]
*414 wbs_sel_i[1]
*415 wbs_sel_i[2]
*416 wbs_sel_i[3]
*417 wbs_stb_i
*418 wbs_we_i
*419 solo_squash_caravel_gf180

*PORTS
io_in[0] I
io_in[10] I
io_in[11] I
io_in[12] I
io_in[13] I
io_in[14] I
io_in[15] I
io_in[16] I
io_in[17] I
io_in[18] I
io_in[19] I
io_in[1] I
io_in[20] I
io_in[21] I
io_in[22] I
io_in[23] I
io_in[24] I
io_in[25] I
io_in[26] I
io_in[27] I
io_in[28] I
io_in[29] I
io_in[2] I
io_in[30] I
io_in[31] I
io_in[32] I
io_in[33] I
io_in[34] I
io_in[35] I
io_in[36] I
io_in[37] I
io_in[3] I
io_in[4] I
io_in[5] I
io_in[6] I
io_in[7] I
io_in[8] I
io_in[9] I
io_oeb[0] O
io_oeb[10] O
io_oeb[11] O
io_oeb[12] O
io_oeb[13] O
io_oeb[14] O
io_oeb[15] O
io_oeb[16] O
io_oeb[17] O
io_oeb[18] O
io_oeb[19] O
io_oeb[1] O
io_oeb[20] O
io_oeb[21] O
io_oeb[22] O
io_oeb[23] O
io_oeb[24] O
io_oeb[25] O
io_oeb[26] O
io_oeb[27] O
io_oeb[28] O
io_oeb[29] O
io_oeb[2] O
io_oeb[30] O
io_oeb[31] O
io_oeb[32] O
io_oeb[33] O
io_oeb[34] O
io_oeb[35] O
io_oeb[36] O
io_oeb[37] O
io_oeb[3] O
io_oeb[4] O
io_oeb[5] O
io_oeb[6] O
io_oeb[7] O
io_oeb[8] O
io_oeb[9] O
io_out[0] O
io_out[10] O
io_out[11] O
io_out[12] O
io_out[13] O
io_out[14] O
io_out[15] O
io_out[16] O
io_out[17] O
io_out[18] O
io_out[19] O
io_out[1] O
io_out[20] O
io_out[21] O
io_out[22] O
io_out[23] O
io_out[24] O
io_out[25] O
io_out[26] O
io_out[27] O
io_out[28] O
io_out[29] O
io_out[2] O
io_out[30] O
io_out[31] O
io_out[32] O
io_out[33] O
io_out[34] O
io_out[35] O
io_out[36] O
io_out[37] O
io_out[3] O
io_out[4] O
io_out[5] O
io_out[6] O
io_out[7] O
io_out[8] O
io_out[9] O
la_data_in[0] I
la_data_in[10] I
la_data_in[11] I
la_data_in[12] I
la_data_in[13] I
la_data_in[14] I
la_data_in[15] I
la_data_in[16] I
la_data_in[17] I
la_data_in[18] I
la_data_in[19] I
la_data_in[1] I
la_data_in[20] I
la_data_in[21] I
la_data_in[22] I
la_data_in[23] I
la_data_in[24] I
la_data_in[25] I
la_data_in[26] I
la_data_in[27] I
la_data_in[28] I
la_data_in[29] I
la_data_in[2] I
la_data_in[30] I
la_data_in[31] I
la_data_in[32] I
la_data_in[33] I
la_data_in[34] I
la_data_in[35] I
la_data_in[36] I
la_data_in[37] I
la_data_in[38] I
la_data_in[39] I
la_data_in[3] I
la_data_in[40] I
la_data_in[41] I
la_data_in[42] I
la_data_in[43] I
la_data_in[44] I
la_data_in[45] I
la_data_in[46] I
la_data_in[47] I
la_data_in[48] I
la_data_in[49] I
la_data_in[4] I
la_data_in[50] I
la_data_in[51] I
la_data_in[52] I
la_data_in[53] I
la_data_in[54] I
la_data_in[55] I
la_data_in[56] I
la_data_in[57] I
la_data_in[58] I
la_data_in[59] I
la_data_in[5] I
la_data_in[60] I
la_data_in[61] I
la_data_in[62] I
la_data_in[63] I
la_data_in[6] I
la_data_in[7] I
la_data_in[8] I
la_data_in[9] I
la_data_out[0] O
la_data_out[10] O
la_data_out[11] O
la_data_out[12] O
la_data_out[13] O
la_data_out[14] O
la_data_out[15] O
la_data_out[16] O
la_data_out[17] O
la_data_out[18] O
la_data_out[19] O
la_data_out[1] O
la_data_out[20] O
la_data_out[21] O
la_data_out[22] O
la_data_out[23] O
la_data_out[24] O
la_data_out[25] O
la_data_out[26] O
la_data_out[27] O
la_data_out[28] O
la_data_out[29] O
la_data_out[2] O
la_data_out[30] O
la_data_out[31] O
la_data_out[32] O
la_data_out[33] O
la_data_out[34] O
la_data_out[35] O
la_data_out[36] O
la_data_out[37] O
la_data_out[38] O
la_data_out[39] O
la_data_out[3] O
la_data_out[40] O
la_data_out[41] O
la_data_out[42] O
la_data_out[43] O
la_data_out[44] O
la_data_out[45] O
la_data_out[46] O
la_data_out[47] O
la_data_out[48] O
la_data_out[49] O
la_data_out[4] O
la_data_out[50] O
la_data_out[51] O
la_data_out[52] O
la_data_out[53] O
la_data_out[54] O
la_data_out[55] O
la_data_out[56] O
la_data_out[57] O
la_data_out[58] O
la_data_out[59] O
la_data_out[5] O
la_data_out[60] O
la_data_out[61] O
la_data_out[62] O
la_data_out[63] O
la_data_out[6] O
la_data_out[7] O
la_data_out[8] O
la_data_out[9] O
la_oenb[0] I
la_oenb[10] I
la_oenb[11] I
la_oenb[12] I
la_oenb[13] I
la_oenb[14] I
la_oenb[15] I
la_oenb[16] I
la_oenb[17] I
la_oenb[18] I
la_oenb[19] I
la_oenb[1] I
la_oenb[20] I
la_oenb[21] I
la_oenb[22] I
la_oenb[23] I
la_oenb[24] I
la_oenb[25] I
la_oenb[26] I
la_oenb[27] I
la_oenb[28] I
la_oenb[29] I
la_oenb[2] I
la_oenb[30] I
la_oenb[31] I
la_oenb[32] I
la_oenb[33] I
la_oenb[34] I
la_oenb[35] I
la_oenb[36] I
la_oenb[37] I
la_oenb[38] I
la_oenb[39] I
la_oenb[3] I
la_oenb[40] I
la_oenb[41] I
la_oenb[42] I
la_oenb[43] I
la_oenb[44] I
la_oenb[45] I
la_oenb[46] I
la_oenb[47] I
la_oenb[48] I
la_oenb[49] I
la_oenb[4] I
la_oenb[50] I
la_oenb[51] I
la_oenb[52] I
la_oenb[53] I
la_oenb[54] I
la_oenb[55] I
la_oenb[56] I
la_oenb[57] I
la_oenb[58] I
la_oenb[59] I
la_oenb[5] I
la_oenb[60] I
la_oenb[61] I
la_oenb[62] I
la_oenb[63] I
la_oenb[6] I
la_oenb[7] I
la_oenb[8] I
la_oenb[9] I
user_clock2 I
user_irq[0] O
user_irq[1] O
user_irq[2] O
wb_clk_i I
wb_rst_i I
wbs_ack_o O
wbs_adr_i[0] I
wbs_adr_i[10] I
wbs_adr_i[11] I
wbs_adr_i[12] I
wbs_adr_i[13] I
wbs_adr_i[14] I
wbs_adr_i[15] I
wbs_adr_i[16] I
wbs_adr_i[17] I
wbs_adr_i[18] I
wbs_adr_i[19] I
wbs_adr_i[1] I
wbs_adr_i[20] I
wbs_adr_i[21] I
wbs_adr_i[22] I
wbs_adr_i[23] I
wbs_adr_i[24] I
wbs_adr_i[25] I
wbs_adr_i[26] I
wbs_adr_i[27] I
wbs_adr_i[28] I
wbs_adr_i[29] I
wbs_adr_i[2] I
wbs_adr_i[30] I
wbs_adr_i[31] I
wbs_adr_i[3] I
wbs_adr_i[4] I
wbs_adr_i[5] I
wbs_adr_i[6] I
wbs_adr_i[7] I
wbs_adr_i[8] I
wbs_adr_i[9] I
wbs_cyc_i I
wbs_dat_i[0] I
wbs_dat_i[10] I
wbs_dat_i[11] I
wbs_dat_i[12] I
wbs_dat_i[13] I
wbs_dat_i[14] I
wbs_dat_i[15] I
wbs_dat_i[16] I
wbs_dat_i[17] I
wbs_dat_i[18] I
wbs_dat_i[19] I
wbs_dat_i[1] I
wbs_dat_i[20] I
wbs_dat_i[21] I
wbs_dat_i[22] I
wbs_dat_i[23] I
wbs_dat_i[24] I
wbs_dat_i[25] I
wbs_dat_i[26] I
wbs_dat_i[27] I
wbs_dat_i[28] I
wbs_dat_i[29] I
wbs_dat_i[2] I
wbs_dat_i[30] I
wbs_dat_i[31] I
wbs_dat_i[3] I
wbs_dat_i[4] I
wbs_dat_i[5] I
wbs_dat_i[6] I
wbs_dat_i[7] I
wbs_dat_i[8] I
wbs_dat_i[9] I
wbs_dat_o[0] O
wbs_dat_o[10] O
wbs_dat_o[11] O
wbs_dat_o[12] O
wbs_dat_o[13] O
wbs_dat_o[14] O
wbs_dat_o[15] O
wbs_dat_o[16] O
wbs_dat_o[17] O
wbs_dat_o[18] O
wbs_dat_o[19] O
wbs_dat_o[1] O
wbs_dat_o[20] O
wbs_dat_o[21] O
wbs_dat_o[22] O
wbs_dat_o[23] O
wbs_dat_o[24] O
wbs_dat_o[25] O
wbs_dat_o[26] O
wbs_dat_o[27] O
wbs_dat_o[28] O
wbs_dat_o[29] O
wbs_dat_o[2] O
wbs_dat_o[30] O
wbs_dat_o[31] O
wbs_dat_o[3] O
wbs_dat_o[4] O
wbs_dat_o[5] O
wbs_dat_o[6] O
wbs_dat_o[7] O
wbs_dat_o[8] O
wbs_dat_o[9] O
wbs_sel_i[0] I
wbs_sel_i[1] I
wbs_sel_i[2] I
wbs_sel_i[3] I
wbs_stb_i I
wbs_we_i I

*D_NET *2 0.232458
*CONN
*P io_in[10] I
*I *419:new_game_n I *D solo_squash_caravel_gf180
*CAP
1 io_in[10] 0.0677085
2 *419:new_game_n 0.000499867
3 *2:9 0.0126747
4 *2:7 0.0121749
5 *2:5 0.0677085
6 *419:new_game_n *86:7 0.000112222
7 *2:9 *40:9 0.0715794
*RES
1 io_in[10] *2:5 480.662 
2 *2:5 *2:7 4.5 
3 *2:7 *2:9 171.988 
4 *2:9 *419:new_game_n 8.034 
*END

*D_NET *3 0.199515
*CONN
*P io_in[11] I
*I *419:down_key_n I *D solo_squash_caravel_gf180
*CAP
1 io_in[11] 0.00129653
2 *419:down_key_n 9.90767e-05
3 *3:17 0.0319164
4 *3:15 0.0318173
5 *3:13 0.0663902
6 *3:11 0.0676867
7 *419:down_key_n *419:up_key_n 3.12222e-05
8 *3:11 *42:9 0.000277404
*RES
1 io_in[11] *3:11 18.082 
2 *3:11 *3:13 472.036 
3 *3:13 *3:15 4.5 
4 *3:15 *3:17 229.14 
5 *3:17 *419:down_key_n 5.298 
*END

*D_NET *4 0.351502
*CONN
*P io_in[12] I
*I *419:up_key_n I *D solo_squash_caravel_gf180
*CAP
1 io_in[12] 0.0676058
2 *419:up_key_n 0.000448082
3 *4:9 0.00734441
4 *4:7 0.00689633
5 *4:5 0.0676058
6 *4:9 *40:9 0.0895991
7 *4:9 *41:9 0.111971
8 *419:down_key_n *419:up_key_n 3.12222e-05
*RES
1 io_in[12] *4:5 480.358 
2 *4:5 *4:7 4.5 
3 *4:7 *4:9 286.9 
4 *4:9 *419:up_key_n 7.73 
*END

*D_NET *37 0.149806
*CONN
*P io_in[8] I
*I *419:ext_reset_n I *D solo_squash_caravel_gf180
*CAP
1 io_in[8] 0.000922987
2 *419:ext_reset_n 0.0583366
3 *37:11 0.0583366
4 *37:9 0.00443913
5 *37:7 0.00536212
6 *419:ext_reset_n *419:wb_rst_i 6.16949e-05
7 *37:9 *74:9 0.0185622
8 *37:9 *76:9 0.00378425
*RES
1 io_in[8] *37:7 10.618 
2 *37:7 *37:9 62.548 
3 *37:9 *37:11 4.5 
4 *37:11 *419:ext_reset_n 414.542 
*END

*D_NET *38 0.249028
*CONN
*P io_in[9] I
*I *419:pause_n I *D solo_squash_caravel_gf180
*CAP
1 io_in[9] 0.00128773
2 *419:pause_n 0.000321666
3 *38:13 0.0465714
4 *38:11 0.0462498
5 *38:9 0.0225975
6 *38:7 0.0238852
7 *419:pause_n *85:7 8.35439e-05
8 *38:9 *44:9 0.0123464
9 *38:13 *75:9 0.0956852
*RES
1 io_in[9] *38:7 11.53 
2 *38:7 *38:9 154.356 
3 *38:9 *38:11 4.5 
4 *38:11 *38:13 442.852 
5 *38:13 *419:pause_n 6.97 
*END

*D_NET *39 0.288979
*CONN
*P io_oeb[0] O
*I *419:io_oeb[0] O *D solo_squash_caravel_gf180
*CAP
1 io_oeb[0] 0.0584434
2 *419:io_oeb[0] 0.000573436
3 *39:11 0.0584434
4 *39:9 0.024189
5 *39:7 0.0247625
6 *39:7 *62:19 7.80701e-05
7 *39:9 *59:9 0.00208571
8 *39:9 *61:9 0.0995331
9 *39:9 *65:9 0.00948559
10 *39:9 *66:9 0.00226546
11 *39:9 *68:9 0
12 *39:9 *69:9 0
13 *39:9 *82:9 0.00911966
*RES
1 *419:io_oeb[0] *39:7 7.882 
2 *39:7 *39:9 346.636 
3 *39:9 *39:11 4.5 
4 *39:11 io_oeb[0] 417.278 
*END

*D_NET *40 0.31109
*CONN
*P io_oeb[10] O
*I *419:io_oeb[10] O *D solo_squash_caravel_gf180
*CAP
1 io_oeb[10] 0.0676742
2 *419:io_oeb[10] 0.000433214
3 *40:11 0.0676742
4 *40:9 0.00486791
5 *40:7 0.00530113
6 *40:7 *72:11 0.000119057
7 *40:9 *41:9 0.0038419
8 *2:9 *40:9 0.0715794
9 *4:9 *40:9 0.0895991
*RES
1 *419:io_oeb[10] *40:7 7.882 
2 *40:7 *40:9 233.548 
3 *40:9 *40:11 4.5 
4 *40:11 io_oeb[10] 480.51 
*END

*D_NET *41 0.318584
*CONN
*P io_oeb[11] O
*I *419:io_oeb[11] O *D solo_squash_caravel_gf180
*CAP
1 io_oeb[11] 0.0675765
2 *419:io_oeb[11] 0.000374025
3 *41:11 0.0675765
4 *41:9 0.020778
5 *41:7 0.021152
6 *41:7 *67:7 0.000117294
7 *41:9 *72:11 0.00110816
8 *41:9 *86:9 0.0240888
9 *4:9 *41:9 0.111971
10 *40:9 *41:9 0.0038419
*RES
1 *419:io_oeb[11] *41:7 7.578 
2 *41:7 *41:9 290.852 
3 *41:9 *41:11 4.5 
4 *41:11 io_oeb[11] 480.206 
*END

*D_NET *42 0.34637
*CONN
*P io_oeb[12] O
*I *419:io_oeb[12] O *D solo_squash_caravel_gf180
*CAP
1 io_oeb[12] 0.000984899
2 *419:io_oeb[12] 0.0713475
3 *42:9 0.0125764
4 *42:7 0.0115915
5 *42:5 0.0713475
6 *42:5 *53:11 6.01054e-05
7 *42:5 *61:7 5.99367e-05
8 *42:9 *76:9 0.0554298
9 *42:9 *81:9 0.122695
10 *3:11 *42:9 0.000277404
*RES
1 *419:io_oeb[12] *42:5 414.086 
2 *42:5 *42:7 4.5 
3 *42:7 *42:9 294.5 
4 *42:9 io_oeb[12] 11.074 
*END

*D_NET *43 0.432899
*CONN
*P io_oeb[13] O
*I *419:io_oeb[13] O *D solo_squash_caravel_gf180
*CAP
1 io_oeb[13] 0.00102617
2 *419:io_oeb[13] 0.050249
3 *43:9 0.00355332
4 *43:7 0.00252715
5 *43:5 0.050249
6 *43:5 *48:5 0.00288219
7 *43:5 *83:5 0.0141597
8 *43:9 *44:9 0.158039
9 *43:9 *76:9 0.000831599
10 *43:9 *81:9 0.149382
*RES
1 *419:io_oeb[13] *43:5 413.782 
2 *43:5 *43:7 4.5 
3 *43:7 *43:9 382.052 
4 *43:9 io_oeb[13] 11.378 
*END

*D_NET *44 0.358772
*CONN
*P io_oeb[14] O
*I *419:io_oeb[14] O *D solo_squash_caravel_gf180
*CAP
1 io_oeb[14] 0.00104681
2 *419:io_oeb[14] 0.0476518
3 *44:9 0.0352102
4 *44:7 0.0341634
5 *44:5 0.0476518
6 *44:5 *45:5 0.0130359
7 *44:5 *46:5 0.00962656
8 *38:9 *44:9 0.0123464
9 *43:9 *44:9 0.158039
*RES
1 *419:io_oeb[14] *44:5 413.63 
2 *44:5 *44:7 4.5 
3 *44:7 *44:9 433.124 
4 *44:9 io_oeb[14] 11.53 
*END

*D_NET *45 0.227623
*CONN
*P io_oeb[15] O
*I *419:io_oeb[15] O *D solo_squash_caravel_gf180
*CAP
1 io_oeb[15] 0.0644657
2 *419:io_oeb[15] 0.0396971
3 *45:7 0.0644657
4 *45:5 0.0396971
5 *45:5 *47:5 0.00626154
6 *44:5 *45:5 0.0130359
*RES
1 *419:io_oeb[15] *45:5 345.838 
2 *45:5 *45:7 4.5 
3 *45:7 io_oeb[15] 441.75 
*END

*D_NET *46 0.202609
*CONN
*P io_oeb[16] O
*I *419:io_oeb[16] O *D solo_squash_caravel_gf180
*CAP
1 io_oeb[16] 0.0647666
2 *419:io_oeb[16] 0.0302849
3 *46:7 0.0647666
4 *46:5 0.0302849
5 *46:5 *48:5 0.00287975
6 *44:5 *46:5 0.00962656
*RES
1 *419:io_oeb[16] *46:5 256.006 
2 *46:5 *46:7 4.5 
3 *46:7 io_oeb[16] 443.574 
*END

*D_NET *47 0.176479
*CONN
*P io_oeb[17] O
*I *419:io_oeb[17] O *D solo_squash_caravel_gf180
*CAP
1 io_oeb[17] 0.0643473
2 *419:io_oeb[17] 0.0176317
3 *47:7 0.0643473
4 *47:5 0.0176317
5 *47:5 *81:5 0.0062591
6 *45:5 *47:5 0.00626154
*RES
1 *419:io_oeb[17] *47:5 166.326 
2 *47:5 *47:7 4.5 
3 *47:7 io_oeb[17] 440.838 
*END

*D_NET *48 0.151775
*CONN
*P io_oeb[18] O
*I *419:io_oeb[18] O *D solo_squash_caravel_gf180
*CAP
1 io_oeb[18] 0.0649362
2 *419:io_oeb[18] 0.00807009
3 *48:7 0.0649362
4 *48:5 0.00807009
5 *43:5 *48:5 0.00288219
6 *46:5 *48:5 0.00287975
*RES
1 *419:io_oeb[18] *48:5 76.342 
2 *48:5 *48:7 4.5 
3 *48:7 io_oeb[18] 444.486 
*END

*D_NET *49 0.150737
*CONN
*P io_oeb[19] O
*I *419:io_oeb[19] O *D solo_squash_caravel_gf180
*CAP
1 io_oeb[19] 0.0591143
2 *419:io_oeb[19] 0.00458239
3 *49:21 0.0602127
4 *49:11 0.00568085
5 *49:11 *52:9 0.016707
6 *49:11 *87:7 1.68738e-05
7 *49:21 *53:13 0.00380082
8 *49:21 *89:15 0.00062235
*RES
1 *419:io_oeb[19] *49:11 49.682 
2 *49:11 *49:21 23.06 
3 *49:21 io_oeb[19] 404.966 
*END

*D_NET *50 0.1924
*CONN
*P io_oeb[1] O
*I *419:io_oeb[1] O *D solo_squash_caravel_gf180
*CAP
1 io_oeb[1] 0.0607402
2 *419:io_oeb[1] 0.0354597
3 *50:7 0.0607402
4 *50:5 0.0354597
*RES
1 *419:io_oeb[1] *50:5 242.782 
2 *50:5 *50:7 4.5 
3 *50:7 io_oeb[1] 432.478 
*END

*D_NET *51 0.148385
*CONN
*P io_oeb[20] O
*I *419:io_oeb[20] O *D solo_squash_caravel_gf180
*CAP
1 io_oeb[20] 0.0594914
2 *419:io_oeb[20] 0.000205039
3 *51:17 0.0594914
4 *51:15 0.0144708
5 *51:13 0.0146758
6 *51:13 *54:9 5.06913e-05
*RES
1 *419:io_oeb[20] *51:13 10.558 
2 *51:13 *51:15 102.372 
3 *51:15 *51:17 4.5 
4 *51:17 io_oeb[20] 407.854 
*END

*D_NET *52 0.27738
*CONN
*P io_oeb[21] O
*I *419:io_oeb[21] O *D solo_squash_caravel_gf180
*CAP
1 io_oeb[21] 0.0591158
2 *419:io_oeb[21] 8.92778e-05
3 *52:15 0.0591158
4 *52:13 0.0104267
5 *52:11 0.0104267
6 *52:9 0.00110832
7 *52:7 0.00119759
8 *52:9 *54:9 0.0188481
9 *52:13 *53:13 0.0203514
10 *52:13 *54:13 0.0799933
11 *49:11 *52:9 0.016707
*RES
1 *419:io_oeb[21] *52:7 4.842 
2 *52:7 *52:9 49.78 
3 *52:9 *52:11 4.5 
4 *52:11 *52:13 193.268 
5 *52:13 *52:15 4.5 
6 *52:15 io_oeb[21] 405.422 
*END

*D_NET *53 0.225645
*CONN
*P io_oeb[22] O
*I *419:io_oeb[22] O *D solo_squash_caravel_gf180
*CAP
1 io_oeb[22] 0.00102104
2 *419:io_oeb[22] 0.000926524
3 *53:21 0.0320279
4 *53:19 0.0310069
5 *53:17 0.0581543
6 *53:15 0.0581543
7 *53:13 0.0029043
8 *53:11 0.00383082
9 *53:11 *65:7 6.09972e-05
10 *53:11 *89:9 0.00292278
11 *53:13 *89:15 0.000369933
12 *53:21 *89:21 0.0100525
13 *42:5 *53:11 6.01054e-05
14 *49:21 *53:13 0.00380082
15 *52:13 *53:13 0.0203514
*RES
1 *419:io_oeb[22] *53:11 18.538 
2 *53:11 *53:13 51.452 
3 *53:13 *53:15 4.5 
4 *53:15 *53:17 398.316 
5 *53:17 *53:19 4.5 
6 *53:19 *53:21 233.548 
7 *53:21 io_oeb[22] 11.53 
*END

*D_NET *54 0.307264
*CONN
*P io_oeb[23] O
*I *419:io_oeb[23] O *D solo_squash_caravel_gf180
*CAP
1 io_oeb[23] 0.0591249
2 *419:io_oeb[23] 0.000149324
3 *54:15 0.0591249
4 *54:13 0.0389478
5 *54:11 0.0389478
6 *54:9 0.00596411
7 *54:7 0.00611344
8 *51:13 *54:9 5.06913e-05
9 *52:9 *54:9 0.0188481
10 *52:13 *54:13 0.0799933
*RES
1 *419:io_oeb[23] *54:7 5.146 
2 *54:7 *54:9 56.62 
3 *54:9 *54:11 4.5 
4 *54:11 *54:13 372.78 
5 *54:13 *54:15 4.5 
6 *54:15 io_oeb[23] 405.574 
*END

*D_NET *55 0.320026
*CONN
*P io_oeb[24] O
*I *419:io_oeb[24] O *D solo_squash_caravel_gf180
*CAP
1 io_oeb[24] 0.000717285
2 *419:io_oeb[24] 0.000554791
3 *55:13 0.0519876
4 *55:11 0.0512703
5 *55:9 0.0244826
6 *55:7 0.0250374
7 *55:9 *59:13 0.13757
8 *55:13 *56:9 0.0284057
*RES
1 *419:io_oeb[24] *55:7 8.034 
2 *55:7 *55:9 336.604 
3 *55:9 *55:11 4.5 
4 *55:11 *55:13 351.5 
5 *55:13 io_oeb[24] 9.706 
*END

*D_NET *56 0.278934
*CONN
*P io_oeb[25] O
*I *419:io_oeb[25] O *D solo_squash_caravel_gf180
*CAP
1 io_oeb[25] 0.000722323
2 *419:io_oeb[25] 0.040113
3 *56:9 0.0264504
4 *56:7 0.0257281
5 *56:5 0.040113
6 *56:5 *64:5 0.0122605
7 *56:9 *57:9 0.105141
8 *55:13 *56:9 0.0284057
*RES
1 *419:io_oeb[25] *56:5 325.622 
2 *56:5 *56:7 4.5 
3 *56:7 *56:9 309.852 
4 *56:9 io_oeb[25] 9.706 
*END

*D_NET *57 0.278784
*CONN
*P io_oeb[26] O
*I *419:io_oeb[26] O *D solo_squash_caravel_gf180
*CAP
1 io_oeb[26] 0.00075835
2 *419:io_oeb[26] 0.0456431
3 *57:9 0.0164059
4 *57:7 0.0156475
5 *57:5 0.0456431
6 *57:5 *67:7 9.43033e-05
7 *57:5 *72:11 0.000119057
8 *57:9 *60:9 0.0310488
9 *57:9 *64:9 0.0182829
10 *56:9 *57:9 0.105141
*RES
1 *419:io_oeb[26] *57:5 325.47 
2 *57:5 *57:7 4.5 
3 *57:7 *57:9 295.26 
4 *57:9 io_oeb[26] 9.858 
*END

*D_NET *58 0.180627
*CONN
*P io_oeb[27] O
*I *419:io_oeb[27] O *D solo_squash_caravel_gf180
*CAP
1 io_oeb[27] 0.0481885
2 *419:io_oeb[27] 0.00143129
3 *58:19 0.0481885
4 *58:17 0.0246824
5 *58:15 0.0246824
6 *58:13 0.00344032
7 *58:11 0.00487161
8 *58:11 *59:9 0.000887672
9 *58:11 *62:19 6.34613e-05
10 *58:11 *63:11 0.00185056
11 *58:11 *65:7 6.18665e-05
12 *58:11 *66:9 0.00262975
13 *58:11 *82:9 2.70104e-06
14 *58:11 *89:9 0.000228352
15 *58:13 *59:13 0.0194172
*RES
1 *419:io_oeb[27] *58:11 24.466 
2 *58:11 *58:13 47.044 
3 *58:13 *58:15 4.5 
4 *58:15 *58:17 179.132 
5 *58:17 *58:19 4.5 
6 *58:19 io_oeb[27] 342.646 
*END

*D_NET *59 0.282033
*CONN
*P io_oeb[28] O
*I *419:io_oeb[28] O *D solo_squash_caravel_gf180
*CAP
1 io_oeb[28] 0.00145259
2 *419:io_oeb[28] 0.000445093
3 *59:17 0.0182833
4 *59:15 0.0168307
5 *59:13 0.0273629
6 *59:11 0.0273629
7 *59:9 0.00133284
8 *59:7 0.00177794
9 *59:7 *419:gpio_ready 6.45853e-05
10 *59:7 *68:7 6.54772e-05
11 *59:9 *62:19 0.00334483
12 *59:9 *65:9 0.0185424
13 *59:9 *66:9 0.00108865
14 *59:9 *82:9 0.00411785
15 *39:9 *59:9 0.00208571
16 *55:9 *59:13 0.13757
17 *58:11 *59:9 0.000887672
18 *58:13 *59:13 0.0194172
*RES
1 *419:io_oeb[28] *59:7 7.274 
2 *59:7 *59:9 56.772 
3 *59:9 *59:11 4.5 
4 *59:11 *59:13 380.38 
5 *59:13 *59:15 4.5 
6 *59:15 *59:17 121.828 
7 *59:17 io_oeb[28] 14.266 
*END

*D_NET *60 0.155123
*CONN
*P io_oeb[29] O
*I *419:io_oeb[29] O *D solo_squash_caravel_gf180
*CAP
1 io_oeb[29] 0.00079267
2 *419:io_oeb[29] 0.0559148
3 *60:9 0.00605367
4 *60:7 0.005261
5 *60:5 0.0559148
6 *60:5 *419:wb_clk_i 0.000137516
7 *57:9 *60:9 0.0310488
*RES
1 *419:io_oeb[29] *60:5 325.318 
2 *60:5 *60:7 4.5 
3 *60:7 *60:9 74.556 
4 *60:9 io_oeb[29] 10.01 
*END

*D_NET *61 0.253661
*CONN
*P io_oeb[2] O
*I *419:io_oeb[2] O *D solo_squash_caravel_gf180
*CAP
1 io_oeb[2] 0.0584228
2 *419:io_oeb[2] 0.000631688
3 *61:11 0.0584228
4 *61:9 0.0174002
5 *61:7 0.0180319
6 *61:7 *63:11 6.01054e-05
7 *61:9 *82:9 0.001099
8 *39:9 *61:9 0.0995331
9 *42:5 *61:7 5.99367e-05
*RES
1 *419:io_oeb[2] *61:7 8.034 
2 *61:7 *61:9 244.644 
3 *61:9 *61:11 4.5 
4 *61:11 io_oeb[2] 417.126 
*END

*D_NET *62 0.121023
*CONN
*P io_oeb[30] O
*I *419:io_oeb[30] O *D solo_squash_caravel_gf180
*CAP
1 io_oeb[30] 0.0544199
2 *419:io_oeb[30] 0.0031314
3 *62:19 0.0575513
4 *62:19 *66:7 0.000145257
5 *62:19 *82:9 0.00165573
6 *62:19 *89:17 0.000632825
7 *39:7 *62:19 7.80701e-05
8 *58:11 *62:19 6.34613e-05
9 *59:9 *62:19 0.00334483
*RES
1 *419:io_oeb[30] *62:19 45.626 
2 *62:19 io_oeb[30] 386.422 
*END

*D_NET *63 0.111401
*CONN
*P io_oeb[31] O
*I *419:io_oeb[31] O *D solo_squash_caravel_gf180
*CAP
1 io_oeb[31] 0.00144565
2 *419:io_oeb[31] 0.000906673
3 *63:19 0.00645701
4 *63:13 0.0523064
5 *63:11 0.0482017
6 *63:11 *66:9 0.000172813
7 *58:11 *63:11 0.00185056
8 *61:7 *63:11 6.01054e-05
*RES
1 *419:io_oeb[31] *63:11 16.6841 
2 *63:11 *63:13 159.014 
3 *63:13 *63:19 45.5859 
4 *63:19 io_oeb[31] 9.766 
*END

*D_NET *64 0.132266
*CONN
*P io_oeb[32] O
*I *419:io_oeb[32] O *D solo_squash_caravel_gf180
*CAP
1 io_oeb[32] 0.000939363
2 *419:io_oeb[32] 0.0400443
3 *64:9 0.0108171
4 *64:7 0.00987769
5 *64:5 0.0400443
6 *56:5 *64:5 0.0122605
7 *57:9 *64:9 0.0182829
*RES
1 *419:io_oeb[32] *64:5 325.318 
2 *64:5 *64:7 4.5 
3 *64:7 *64:9 93.1 
4 *64:9 io_oeb[32] 10.01 
*END

*D_NET *65 0.2099
*CONN
*P io_oeb[33] O
*I *419:io_oeb[33] O *D solo_squash_caravel_gf180
*CAP
1 io_oeb[33] 0.0548456
2 *419:io_oeb[33] 0.000428749
3 *65:11 0.0548456
4 *65:9 0.00368627
5 *65:7 0.00411502
6 *65:9 *66:9 0.0638278
7 *39:9 *65:9 0.00948559
8 *53:11 *65:7 6.09972e-05
9 *58:11 *65:7 6.18665e-05
10 *59:9 *65:9 0.0185424
*RES
1 *419:io_oeb[33] *65:7 7.122 
2 *65:7 *65:9 153.596 
3 *65:9 *65:11 4.5 
4 *65:11 io_oeb[33] 389.918 
*END

*D_NET *66 0.266974
*CONN
*P io_oeb[34] O
*I *419:io_oeb[34] O *D solo_squash_caravel_gf180
*CAP
1 io_oeb[34] 0.0547976
2 *419:io_oeb[34] 0.000386033
3 *66:11 0.0547976
4 *66:9 0.00715251
5 *66:7 0.00753854
6 *66:9 *68:9 0.0695856
7 *66:9 *89:9 0.00156619
8 *66:9 *314:13 0.00102035
9 *39:9 *66:9 0.00226546
10 *58:11 *66:9 0.00262975
11 *59:9 *66:9 0.00108865
12 *62:19 *66:7 0.000145257
13 *63:11 *66:9 0.000172813
14 *65:9 *66:9 0.0638278
*RES
1 *419:io_oeb[34] *66:7 6.97 
2 *66:7 *66:9 216.524 
3 *66:9 *66:11 4.5 
4 *66:11 io_oeb[34] 389.766 
*END

*D_NET *67 0.164786
*CONN
*P io_oeb[35] O
*I *419:io_oeb[35] O *D solo_squash_caravel_gf180
*CAP
1 io_oeb[35] 0.0457931
2 *419:io_oeb[35] 0.000581697
3 *67:11 0.0457931
4 *67:9 0.0299103
5 *67:7 0.030492
6 *67:9 *72:11 0.00131555
7 *67:9 *313:13 0.010689
8 *41:7 *67:7 0.000117294
9 *57:5 *67:7 9.43033e-05
*RES
1 *419:io_oeb[35] *67:7 8.642 
2 *67:7 *67:9 221.084 
3 *67:9 *67:11 4.5 
4 *67:11 io_oeb[35] 326.686 
*END

*D_NET *68 0.327028
*CONN
*P io_oeb[36] O
*I *419:io_oeb[36] O *D solo_squash_caravel_gf180
*CAP
1 io_oeb[36] 0.0547409
2 *419:io_oeb[36] 0.000339097
3 *68:11 0.0547409
4 *68:9 0.00903397
5 *68:7 0.00937307
6 *68:7 *89:7 6.54772e-05
7 *68:9 *69:9 0.115668
8 *68:9 *115:13 0.0134146
9 *39:9 *68:9 0
10 *59:7 *68:7 6.54772e-05
11 *66:9 *68:9 0.0695856
*RES
1 *419:io_oeb[36] *68:7 6.818 
2 *68:7 *68:9 282.188 
3 *68:9 *68:11 4.5 
4 *68:11 io_oeb[36] 389.614 
*END

*D_NET *69 0.315201
*CONN
*P io_oeb[37] O
*I *419:io_oeb[37] O *D solo_squash_caravel_gf180
*CAP
1 io_oeb[37] 0.0546996
2 *419:io_oeb[37] 0.000342223
3 *69:11 0.0546996
4 *69:9 0.0275638
5 *69:7 0.027906
6 *69:7 *74:5 6.18896e-05
7 *69:9 *115:13 0.00212627
8 *69:9 *314:13 0.0321331
9 *39:9 *69:9 0
10 *68:9 *69:9 0.115668
*RES
1 *419:io_oeb[37] *69:7 6.666 
2 *69:7 *69:9 335.084 
3 *69:9 *69:11 4.5 
4 *69:11 io_oeb[37] 389.462 
*END

*D_NET *70 0.175035
*CONN
*P io_oeb[3] O
*I *419:io_oeb[3] O *D solo_squash_caravel_gf180
*CAP
1 io_oeb[3] 0.0601275
2 *419:io_oeb[3] 0.000162522
3 *70:13 0.0601275
4 *70:11 0.0272275
5 *70:9 0.02739
*RES
1 *419:io_oeb[3] *70:9 10.102 
2 *70:9 *70:11 196.46 
3 *70:11 *70:13 4.5 
4 *70:13 io_oeb[3] 427.766 
*END

*D_NET *71 0.159005
*CONN
*P io_oeb[4] O
*I *419:io_oeb[4] O *D solo_squash_caravel_gf180
*CAP
1 io_oeb[4] 0.0649821
2 *419:io_oeb[4] 0.0144774
3 *71:7 0.0649821
4 *71:5 0.0144774
5 *71:5 *75:7 8.59505e-05
*RES
1 *419:io_oeb[4] *71:5 81.358 
2 *71:5 *71:7 4.5 
3 *71:7 io_oeb[4] 462.574 
*END

*D_NET *72 0.146387